version 2
run General-0-20130917-12:54:12-11245
attr configname General
attr datetime 20130917-12:54:12
attr experiment General
attr inifile omnetpp.ini
attr iterationvars ""
attr iterationvars2 $repetition=0
attr measurement ""
attr network SubstationSidhu2007
attr processid 11245
attr repetition 0
attr replication #0
attr resultdir results
attr runnumber 0
attr seedset 0

scalar SubstationSidhu2007.stationSwitch.eth[0] 	"simulated time" 	30.974596638799
scalar SubstationSidhu2007.stationSwitch.eth[0] 	full-duplex 	1
scalar SubstationSidhu2007.stationSwitch.eth[0] 	"frames/sec sent" 	179.50193395047
scalar SubstationSidhu2007.stationSwitch.eth[0] 	"frames/sec rcvd" 	191.64091365647
scalar SubstationSidhu2007.stationSwitch.eth[0] 	"bits/sec sent" 	92967.538321159
scalar SubstationSidhu2007.stationSwitch.eth[0] 	"bits/sec rcvd" 	1110285.8384578
scalar SubstationSidhu2007.stationSwitch.eth[0] 	"rx channel idle (%)" 	98.877449143068
scalar SubstationSidhu2007.stationSwitch.eth[0] 	"rx channel utilization (%)" 	1.1225508569318
scalar SubstationSidhu2007.stationSwitch.eth[0] 	"rx channel collision (%)" 	0
scalar SubstationSidhu2007.stationSwitch.eth[0] 	collisions 	0
scalar SubstationSidhu2007.stationSwitch.eth[0] 	backoffs 	0
scalar SubstationSidhu2007.stationSwitch.eth[0] 	backoff:count 	0
attr interpolationmode  none
attr title  "backoff, count"
scalar SubstationSidhu2007.stationSwitch.eth[0] 	collision:count 	0
attr interpolationmode  none
attr title  "collision, count"
scalar SubstationSidhu2007.stationSwitch.eth[0] 	droppedPkNotForUs:count 	0
attr interpolationmode  none
attr source  dropPkNotForUs
attr title  "packets dropped/not for us, count"
scalar SubstationSidhu2007.stationSwitch.eth[0] 	droppedPkNotForUs:sum(packetBytes) 	0
attr interpolationmode  none
attr source  dropPkNotForUs
attr title  "packets dropped/not for us, sum(packetBytes)"
scalar SubstationSidhu2007.stationSwitch.eth[0] 	droppedPkBitError:count 	0
attr interpolationmode  none
attr source  dropPkBitError
attr title  "packets dropped/bit error, count"
scalar SubstationSidhu2007.stationSwitch.eth[0] 	droppedPkBitError:sum(packetBytes) 	0
attr interpolationmode  none
attr source  dropPkBitError
attr title  "packets dropped/bit error, sum(packetBytes)"
scalar SubstationSidhu2007.stationSwitch.eth[0] 	droppedPkIfaceDown:count 	0
attr interpolationmode  none
attr source  dropPkIfaceDown
attr title  "packets dropped/interface down, count"
scalar SubstationSidhu2007.stationSwitch.eth[0] 	droppedPkIfaceDown:sum(packetBytes) 	0
attr interpolationmode  none
attr source  dropPkIfaceDown
attr title  "packets dropped/interface down, sum(packetBytes)"
scalar SubstationSidhu2007.stationSwitch.eth[0] 	rxPkFromHL:count 	5560
attr interpolationmode  none
attr source  rxPkFromHL
attr title  "packet bytes from higher layer, count"
scalar SubstationSidhu2007.stationSwitch.eth[0] 	rxPkFromHL:sum(packetBytes) 	359954
attr interpolationmode  none
attr source  rxPkFromHL
attr title  "packet bytes from higher layer, sum(packetBytes)"
scalar SubstationSidhu2007.stationSwitch.eth[0] 	rxPausePkUnits:count 	0
attr interpolationmode  none
attr title  "pause units received, count"
scalar SubstationSidhu2007.stationSwitch.eth[0] 	rxPausePkUnits:sum 	0
attr interpolationmode  none
attr title  "pause units received, sum"
scalar SubstationSidhu2007.stationSwitch.eth[0] 	txPausePkUnits:count 	0
attr interpolationmode  none
attr title  "pause units sent, count"
scalar SubstationSidhu2007.stationSwitch.eth[0] 	txPausePkUnits:sum 	0
attr interpolationmode  none
attr title  "pause units sent, sum"
scalar SubstationSidhu2007.stationSwitch.eth[0] 	passedUpPk:count 	5936
attr interpolationmode  none
attr source  packetSentToUpper
attr title  "packets passed to higher layer, count"
scalar SubstationSidhu2007.stationSwitch.eth[0] 	passedUpPk:sum(packetBytes) 	4298832
attr interpolationmode  none
attr source  packetSentToUpper
attr title  "packets passed to higher layer, sum(packetBytes)"
scalar SubstationSidhu2007.stationSwitch.eth[0] 	rxPkOk:count 	5936
attr interpolationmode  none
attr source  rxPkOk
attr title  "packets received OK, count"
scalar SubstationSidhu2007.stationSwitch.eth[0] 	rxPkOk:sum(packetBytes) 	4298832
attr interpolationmode  none
attr source  rxPkOk
attr title  "packets received OK, sum(packetBytes)"
scalar SubstationSidhu2007.stationSwitch.eth[0] 	txPk:count 	5560
attr interpolationmode  none
attr source  txPk
attr title  "packets transmitted, count"
scalar SubstationSidhu2007.stationSwitch.eth[0] 	txPk:sum(packetBytes) 	359954
attr interpolationmode  none
attr source  txPk
attr title  "packets transmitted, sum(packetBytes)"
scalar SubstationSidhu2007.stationSwitch.eth[1] 	"simulated time" 	30.974596638799
scalar SubstationSidhu2007.stationSwitch.eth[1] 	full-duplex 	1
scalar SubstationSidhu2007.stationSwitch.eth[1] 	"frames/sec sent" 	179.50193395047
scalar SubstationSidhu2007.stationSwitch.eth[1] 	"frames/sec rcvd" 	191.64091365647
scalar SubstationSidhu2007.stationSwitch.eth[1] 	"bits/sec sent" 	92967.538321159
scalar SubstationSidhu2007.stationSwitch.eth[1] 	"bits/sec rcvd" 	1110285.8384578
scalar SubstationSidhu2007.stationSwitch.eth[1] 	"rx channel idle (%)" 	98.877449143068
scalar SubstationSidhu2007.stationSwitch.eth[1] 	"rx channel utilization (%)" 	1.1225508569318
scalar SubstationSidhu2007.stationSwitch.eth[1] 	"rx channel collision (%)" 	0
scalar SubstationSidhu2007.stationSwitch.eth[1] 	collisions 	0
scalar SubstationSidhu2007.stationSwitch.eth[1] 	backoffs 	0
scalar SubstationSidhu2007.stationSwitch.eth[1] 	backoff:count 	0
attr interpolationmode  none
attr title  "backoff, count"
scalar SubstationSidhu2007.stationSwitch.eth[1] 	collision:count 	0
attr interpolationmode  none
attr title  "collision, count"
scalar SubstationSidhu2007.stationSwitch.eth[1] 	droppedPkNotForUs:count 	0
attr interpolationmode  none
attr source  dropPkNotForUs
attr title  "packets dropped/not for us, count"
scalar SubstationSidhu2007.stationSwitch.eth[1] 	droppedPkNotForUs:sum(packetBytes) 	0
attr interpolationmode  none
attr source  dropPkNotForUs
attr title  "packets dropped/not for us, sum(packetBytes)"
scalar SubstationSidhu2007.stationSwitch.eth[1] 	droppedPkBitError:count 	0
attr interpolationmode  none
attr source  dropPkBitError
attr title  "packets dropped/bit error, count"
scalar SubstationSidhu2007.stationSwitch.eth[1] 	droppedPkBitError:sum(packetBytes) 	0
attr interpolationmode  none
attr source  dropPkBitError
attr title  "packets dropped/bit error, sum(packetBytes)"
scalar SubstationSidhu2007.stationSwitch.eth[1] 	droppedPkIfaceDown:count 	0
attr interpolationmode  none
attr source  dropPkIfaceDown
attr title  "packets dropped/interface down, count"
scalar SubstationSidhu2007.stationSwitch.eth[1] 	droppedPkIfaceDown:sum(packetBytes) 	0
attr interpolationmode  none
attr source  dropPkIfaceDown
attr title  "packets dropped/interface down, sum(packetBytes)"
scalar SubstationSidhu2007.stationSwitch.eth[1] 	rxPkFromHL:count 	5560
attr interpolationmode  none
attr source  rxPkFromHL
attr title  "packet bytes from higher layer, count"
scalar SubstationSidhu2007.stationSwitch.eth[1] 	rxPkFromHL:sum(packetBytes) 	359954
attr interpolationmode  none
attr source  rxPkFromHL
attr title  "packet bytes from higher layer, sum(packetBytes)"
scalar SubstationSidhu2007.stationSwitch.eth[1] 	rxPausePkUnits:count 	0
attr interpolationmode  none
attr title  "pause units received, count"
scalar SubstationSidhu2007.stationSwitch.eth[1] 	rxPausePkUnits:sum 	0
attr interpolationmode  none
attr title  "pause units received, sum"
scalar SubstationSidhu2007.stationSwitch.eth[1] 	txPausePkUnits:count 	0
attr interpolationmode  none
attr title  "pause units sent, count"
scalar SubstationSidhu2007.stationSwitch.eth[1] 	txPausePkUnits:sum 	0
attr interpolationmode  none
attr title  "pause units sent, sum"
scalar SubstationSidhu2007.stationSwitch.eth[1] 	passedUpPk:count 	5936
attr interpolationmode  none
attr source  packetSentToUpper
attr title  "packets passed to higher layer, count"
scalar SubstationSidhu2007.stationSwitch.eth[1] 	passedUpPk:sum(packetBytes) 	4298832
attr interpolationmode  none
attr source  packetSentToUpper
attr title  "packets passed to higher layer, sum(packetBytes)"
scalar SubstationSidhu2007.stationSwitch.eth[1] 	rxPkOk:count 	5936
attr interpolationmode  none
attr source  rxPkOk
attr title  "packets received OK, count"
scalar SubstationSidhu2007.stationSwitch.eth[1] 	rxPkOk:sum(packetBytes) 	4298832
attr interpolationmode  none
attr source  rxPkOk
attr title  "packets received OK, sum(packetBytes)"
scalar SubstationSidhu2007.stationSwitch.eth[1] 	txPk:count 	5560
attr interpolationmode  none
attr source  txPk
attr title  "packets transmitted, count"
scalar SubstationSidhu2007.stationSwitch.eth[1] 	txPk:sum(packetBytes) 	359954
attr interpolationmode  none
attr source  txPk
attr title  "packets transmitted, sum(packetBytes)"
scalar SubstationSidhu2007.stationSwitch.eth[2] 	"simulated time" 	30.974596638799
scalar SubstationSidhu2007.stationSwitch.eth[2] 	full-duplex 	1
scalar SubstationSidhu2007.stationSwitch.eth[2] 	"frames/sec sent" 	108.54055790314
scalar SubstationSidhu2007.stationSwitch.eth[2] 	"frames/sec rcvd" 	78.063970556156
scalar SubstationSidhu2007.stationSwitch.eth[2] 	"bits/sec sent" 	56537.168842626
scalar SubstationSidhu2007.stationSwitch.eth[2] 	"bits/sec rcvd" 	546051.59825758
scalar SubstationSidhu2007.stationSwitch.eth[2] 	"rx channel idle (%)" 	99.448952307627
scalar SubstationSidhu2007.stationSwitch.eth[2] 	"rx channel utilization (%)" 	0.55104769237317
scalar SubstationSidhu2007.stationSwitch.eth[2] 	"rx channel collision (%)" 	0
scalar SubstationSidhu2007.stationSwitch.eth[2] 	collisions 	0
scalar SubstationSidhu2007.stationSwitch.eth[2] 	backoffs 	0
scalar SubstationSidhu2007.stationSwitch.eth[2] 	backoff:count 	0
attr interpolationmode  none
attr title  "backoff, count"
scalar SubstationSidhu2007.stationSwitch.eth[2] 	collision:count 	0
attr interpolationmode  none
attr title  "collision, count"
scalar SubstationSidhu2007.stationSwitch.eth[2] 	droppedPkNotForUs:count 	0
attr interpolationmode  none
attr source  dropPkNotForUs
attr title  "packets dropped/not for us, count"
scalar SubstationSidhu2007.stationSwitch.eth[2] 	droppedPkNotForUs:sum(packetBytes) 	0
attr interpolationmode  none
attr source  dropPkNotForUs
attr title  "packets dropped/not for us, sum(packetBytes)"
scalar SubstationSidhu2007.stationSwitch.eth[2] 	droppedPkBitError:count 	0
attr interpolationmode  none
attr source  dropPkBitError
attr title  "packets dropped/bit error, count"
scalar SubstationSidhu2007.stationSwitch.eth[2] 	droppedPkBitError:sum(packetBytes) 	0
attr interpolationmode  none
attr source  dropPkBitError
attr title  "packets dropped/bit error, sum(packetBytes)"
scalar SubstationSidhu2007.stationSwitch.eth[2] 	droppedPkIfaceDown:count 	0
attr interpolationmode  none
attr source  dropPkIfaceDown
attr title  "packets dropped/interface down, count"
scalar SubstationSidhu2007.stationSwitch.eth[2] 	droppedPkIfaceDown:sum(packetBytes) 	0
attr interpolationmode  none
attr source  dropPkIfaceDown
attr title  "packets dropped/interface down, sum(packetBytes)"
scalar SubstationSidhu2007.stationSwitch.eth[2] 	rxPkFromHL:count 	3362
attr interpolationmode  none
attr source  rxPkFromHL
attr title  "packet bytes from higher layer, count"
scalar SubstationSidhu2007.stationSwitch.eth[2] 	rxPkFromHL:sum(packetBytes) 	218902
attr interpolationmode  none
attr source  rxPkFromHL
attr title  "packet bytes from higher layer, sum(packetBytes)"
scalar SubstationSidhu2007.stationSwitch.eth[2] 	rxPausePkUnits:count 	0
attr interpolationmode  none
attr title  "pause units received, count"
scalar SubstationSidhu2007.stationSwitch.eth[2] 	rxPausePkUnits:sum 	0
attr interpolationmode  none
attr title  "pause units received, sum"
scalar SubstationSidhu2007.stationSwitch.eth[2] 	txPausePkUnits:count 	0
attr interpolationmode  none
attr title  "pause units sent, count"
scalar SubstationSidhu2007.stationSwitch.eth[2] 	txPausePkUnits:sum 	0
attr interpolationmode  none
attr title  "pause units sent, sum"
scalar SubstationSidhu2007.stationSwitch.eth[2] 	passedUpPk:count 	2418
attr interpolationmode  none
attr source  packetSentToUpper
attr title  "packets passed to higher layer, count"
scalar SubstationSidhu2007.stationSwitch.eth[2] 	passedUpPk:sum(packetBytes) 	2114216
attr interpolationmode  none
attr source  packetSentToUpper
attr title  "packets passed to higher layer, sum(packetBytes)"
scalar SubstationSidhu2007.stationSwitch.eth[2] 	rxPkOk:count 	2418
attr interpolationmode  none
attr source  rxPkOk
attr title  "packets received OK, count"
scalar SubstationSidhu2007.stationSwitch.eth[2] 	rxPkOk:sum(packetBytes) 	2114216
attr interpolationmode  none
attr source  rxPkOk
attr title  "packets received OK, sum(packetBytes)"
scalar SubstationSidhu2007.stationSwitch.eth[2] 	txPk:count 	3362
attr interpolationmode  none
attr source  txPk
attr title  "packets transmitted, count"
scalar SubstationSidhu2007.stationSwitch.eth[2] 	txPk:sum(packetBytes) 	218902
attr interpolationmode  none
attr source  txPk
attr title  "packets transmitted, sum(packetBytes)"
scalar SubstationSidhu2007.stationSwitch.eth[3] 	"simulated time" 	30.974596638799
scalar SubstationSidhu2007.stationSwitch.eth[3] 	full-duplex 	1
scalar SubstationSidhu2007.stationSwitch.eth[3] 	"frames/sec sent" 	53.78601114415
scalar SubstationSidhu2007.stationSwitch.eth[3] 	"frames/sec rcvd" 	188.9935829759
scalar SubstationSidhu2007.stationSwitch.eth[3] 	"bits/sec sent" 	27685.655119261
scalar SubstationSidhu2007.stationSwitch.eth[3] 	"bits/sec rcvd" 	856755.24073682
scalar SubstationSidhu2007.stationSwitch.eth[3] 	"rx channel idle (%)" 	99.131149169953
scalar SubstationSidhu2007.stationSwitch.eth[3] 	"rx channel utilization (%)" 	0.86885083004727
scalar SubstationSidhu2007.stationSwitch.eth[3] 	"rx channel collision (%)" 	0
scalar SubstationSidhu2007.stationSwitch.eth[3] 	collisions 	0
scalar SubstationSidhu2007.stationSwitch.eth[3] 	backoffs 	0
scalar SubstationSidhu2007.stationSwitch.eth[3] 	backoff:count 	0
attr interpolationmode  none
attr title  "backoff, count"
scalar SubstationSidhu2007.stationSwitch.eth[3] 	collision:count 	0
attr interpolationmode  none
attr title  "collision, count"
scalar SubstationSidhu2007.stationSwitch.eth[3] 	droppedPkNotForUs:count 	0
attr interpolationmode  none
attr source  dropPkNotForUs
attr title  "packets dropped/not for us, count"
scalar SubstationSidhu2007.stationSwitch.eth[3] 	droppedPkNotForUs:sum(packetBytes) 	0
attr interpolationmode  none
attr source  dropPkNotForUs
attr title  "packets dropped/not for us, sum(packetBytes)"
scalar SubstationSidhu2007.stationSwitch.eth[3] 	droppedPkBitError:count 	0
attr interpolationmode  none
attr source  dropPkBitError
attr title  "packets dropped/bit error, count"
scalar SubstationSidhu2007.stationSwitch.eth[3] 	droppedPkBitError:sum(packetBytes) 	0
attr interpolationmode  none
attr source  dropPkBitError
attr title  "packets dropped/bit error, sum(packetBytes)"
scalar SubstationSidhu2007.stationSwitch.eth[3] 	droppedPkIfaceDown:count 	0
attr interpolationmode  none
attr source  dropPkIfaceDown
attr title  "packets dropped/interface down, count"
scalar SubstationSidhu2007.stationSwitch.eth[3] 	droppedPkIfaceDown:sum(packetBytes) 	0
attr interpolationmode  none
attr source  dropPkIfaceDown
attr title  "packets dropped/interface down, sum(packetBytes)"
scalar SubstationSidhu2007.stationSwitch.eth[3] 	rxPkFromHL:count 	1666
attr interpolationmode  none
attr source  rxPkFromHL
attr title  "packet bytes from higher layer, count"
scalar SubstationSidhu2007.stationSwitch.eth[3] 	rxPkFromHL:sum(packetBytes) 	107194
attr interpolationmode  none
attr source  rxPkFromHL
attr title  "packet bytes from higher layer, sum(packetBytes)"
scalar SubstationSidhu2007.stationSwitch.eth[3] 	rxPausePkUnits:count 	0
attr interpolationmode  none
attr title  "pause units received, count"
scalar SubstationSidhu2007.stationSwitch.eth[3] 	rxPausePkUnits:sum 	0
attr interpolationmode  none
attr title  "pause units received, sum"
scalar SubstationSidhu2007.stationSwitch.eth[3] 	txPausePkUnits:count 	0
attr interpolationmode  none
attr title  "pause units sent, count"
scalar SubstationSidhu2007.stationSwitch.eth[3] 	txPausePkUnits:sum 	0
attr interpolationmode  none
attr title  "pause units sent, sum"
scalar SubstationSidhu2007.stationSwitch.eth[3] 	passedUpPk:count 	5854
attr interpolationmode  none
attr source  packetSentToUpper
attr title  "packets passed to higher layer, count"
scalar SubstationSidhu2007.stationSwitch.eth[3] 	passedUpPk:sum(packetBytes) 	3317206
attr interpolationmode  none
attr source  packetSentToUpper
attr title  "packets passed to higher layer, sum(packetBytes)"
scalar SubstationSidhu2007.stationSwitch.eth[3] 	rxPkOk:count 	5854
attr interpolationmode  none
attr source  rxPkOk
attr title  "packets received OK, count"
scalar SubstationSidhu2007.stationSwitch.eth[3] 	rxPkOk:sum(packetBytes) 	3317206
attr interpolationmode  none
attr source  rxPkOk
attr title  "packets received OK, sum(packetBytes)"
scalar SubstationSidhu2007.stationSwitch.eth[3] 	txPk:count 	1666
attr interpolationmode  none
attr source  txPk
attr title  "packets transmitted, count"
scalar SubstationSidhu2007.stationSwitch.eth[3] 	txPk:sum(packetBytes) 	107194
attr interpolationmode  none
attr source  txPk
attr title  "packets transmitted, sum(packetBytes)"
scalar SubstationSidhu2007.stationSwitch.eth[4] 	"simulated time" 	30.974596638799
scalar SubstationSidhu2007.stationSwitch.eth[4] 	full-duplex 	1
scalar SubstationSidhu2007.stationSwitch.eth[4] 	"frames/sec sent" 	125.97419897027
scalar SubstationSidhu2007.stationSwitch.eth[4] 	"frames/sec rcvd" 	116.80539514978
scalar SubstationSidhu2007.stationSwitch.eth[4] 	"bits/sec sent" 	65512.265540149
scalar SubstationSidhu2007.stationSwitch.eth[4] 	"bits/sec rcvd" 	818928.63031593
scalar SubstationSidhu2007.stationSwitch.eth[4] 	"rx channel idle (%)" 	99.173595824394
scalar SubstationSidhu2007.stationSwitch.eth[4] 	"rx channel utilization (%)" 	0.82640417560551
scalar SubstationSidhu2007.stationSwitch.eth[4] 	"rx channel collision (%)" 	0
scalar SubstationSidhu2007.stationSwitch.eth[4] 	collisions 	0
scalar SubstationSidhu2007.stationSwitch.eth[4] 	backoffs 	0
scalar SubstationSidhu2007.stationSwitch.eth[4] 	backoff:count 	0
attr interpolationmode  none
attr title  "backoff, count"
scalar SubstationSidhu2007.stationSwitch.eth[4] 	collision:count 	0
attr interpolationmode  none
attr title  "collision, count"
scalar SubstationSidhu2007.stationSwitch.eth[4] 	droppedPkNotForUs:count 	0
attr interpolationmode  none
attr source  dropPkNotForUs
attr title  "packets dropped/not for us, count"
scalar SubstationSidhu2007.stationSwitch.eth[4] 	droppedPkNotForUs:sum(packetBytes) 	0
attr interpolationmode  none
attr source  dropPkNotForUs
attr title  "packets dropped/not for us, sum(packetBytes)"
scalar SubstationSidhu2007.stationSwitch.eth[4] 	droppedPkBitError:count 	0
attr interpolationmode  none
attr source  dropPkBitError
attr title  "packets dropped/bit error, count"
scalar SubstationSidhu2007.stationSwitch.eth[4] 	droppedPkBitError:sum(packetBytes) 	0
attr interpolationmode  none
attr source  dropPkBitError
attr title  "packets dropped/bit error, sum(packetBytes)"
scalar SubstationSidhu2007.stationSwitch.eth[4] 	droppedPkIfaceDown:count 	0
attr interpolationmode  none
attr source  dropPkIfaceDown
attr title  "packets dropped/interface down, count"
scalar SubstationSidhu2007.stationSwitch.eth[4] 	droppedPkIfaceDown:sum(packetBytes) 	0
attr interpolationmode  none
attr source  dropPkIfaceDown
attr title  "packets dropped/interface down, sum(packetBytes)"
scalar SubstationSidhu2007.stationSwitch.eth[4] 	rxPkFromHL:count 	3902
attr interpolationmode  none
attr source  rxPkFromHL
attr title  "packet bytes from higher layer, count"
scalar SubstationSidhu2007.stationSwitch.eth[4] 	rxPkFromHL:sum(packetBytes) 	253652
attr interpolationmode  none
attr source  rxPkFromHL
attr title  "packet bytes from higher layer, sum(packetBytes)"
scalar SubstationSidhu2007.stationSwitch.eth[4] 	rxPausePkUnits:count 	0
attr interpolationmode  none
attr title  "pause units received, count"
scalar SubstationSidhu2007.stationSwitch.eth[4] 	rxPausePkUnits:sum 	0
attr interpolationmode  none
attr title  "pause units received, sum"
scalar SubstationSidhu2007.stationSwitch.eth[4] 	txPausePkUnits:count 	0
attr interpolationmode  none
attr title  "pause units sent, count"
scalar SubstationSidhu2007.stationSwitch.eth[4] 	txPausePkUnits:sum 	0
attr interpolationmode  none
attr title  "pause units sent, sum"
scalar SubstationSidhu2007.stationSwitch.eth[4] 	passedUpPk:count 	3618
attr interpolationmode  none
attr source  packetSentToUpper
attr title  "packets passed to higher layer, count"
scalar SubstationSidhu2007.stationSwitch.eth[4] 	passedUpPk:sum(packetBytes) 	3170748
attr interpolationmode  none
attr source  packetSentToUpper
attr title  "packets passed to higher layer, sum(packetBytes)"
scalar SubstationSidhu2007.stationSwitch.eth[4] 	rxPkOk:count 	3618
attr interpolationmode  none
attr source  rxPkOk
attr title  "packets received OK, count"
scalar SubstationSidhu2007.stationSwitch.eth[4] 	rxPkOk:sum(packetBytes) 	3170748
attr interpolationmode  none
attr source  rxPkOk
attr title  "packets received OK, sum(packetBytes)"
scalar SubstationSidhu2007.stationSwitch.eth[4] 	txPk:count 	3902
attr interpolationmode  none
attr source  txPk
attr title  "packets transmitted, count"
scalar SubstationSidhu2007.stationSwitch.eth[4] 	txPk:sum(packetBytes) 	253652
attr interpolationmode  none
attr source  txPk
attr title  "packets transmitted, sum(packetBytes)"
scalar SubstationSidhu2007.stationSwitch.eth[5] 	"simulated time" 	30.974596638799
scalar SubstationSidhu2007.stationSwitch.eth[5] 	full-duplex 	1
scalar SubstationSidhu2007.stationSwitch.eth[5] 	"frames/sec sent" 	125.97419897027
scalar SubstationSidhu2007.stationSwitch.eth[5] 	"frames/sec rcvd" 	116.80539514978
scalar SubstationSidhu2007.stationSwitch.eth[5] 	"bits/sec sent" 	65512.265540149
scalar SubstationSidhu2007.stationSwitch.eth[5] 	"bits/sec rcvd" 	818928.63031593
scalar SubstationSidhu2007.stationSwitch.eth[5] 	"rx channel idle (%)" 	99.173595824394
scalar SubstationSidhu2007.stationSwitch.eth[5] 	"rx channel utilization (%)" 	0.82640417560551
scalar SubstationSidhu2007.stationSwitch.eth[5] 	"rx channel collision (%)" 	0
scalar SubstationSidhu2007.stationSwitch.eth[5] 	collisions 	0
scalar SubstationSidhu2007.stationSwitch.eth[5] 	backoffs 	0
scalar SubstationSidhu2007.stationSwitch.eth[5] 	backoff:count 	0
attr interpolationmode  none
attr title  "backoff, count"
scalar SubstationSidhu2007.stationSwitch.eth[5] 	collision:count 	0
attr interpolationmode  none
attr title  "collision, count"
scalar SubstationSidhu2007.stationSwitch.eth[5] 	droppedPkNotForUs:count 	0
attr interpolationmode  none
attr source  dropPkNotForUs
attr title  "packets dropped/not for us, count"
scalar SubstationSidhu2007.stationSwitch.eth[5] 	droppedPkNotForUs:sum(packetBytes) 	0
attr interpolationmode  none
attr source  dropPkNotForUs
attr title  "packets dropped/not for us, sum(packetBytes)"
scalar SubstationSidhu2007.stationSwitch.eth[5] 	droppedPkBitError:count 	0
attr interpolationmode  none
attr source  dropPkBitError
attr title  "packets dropped/bit error, count"
scalar SubstationSidhu2007.stationSwitch.eth[5] 	droppedPkBitError:sum(packetBytes) 	0
attr interpolationmode  none
attr source  dropPkBitError
attr title  "packets dropped/bit error, sum(packetBytes)"
scalar SubstationSidhu2007.stationSwitch.eth[5] 	droppedPkIfaceDown:count 	0
attr interpolationmode  none
attr source  dropPkIfaceDown
attr title  "packets dropped/interface down, count"
scalar SubstationSidhu2007.stationSwitch.eth[5] 	droppedPkIfaceDown:sum(packetBytes) 	0
attr interpolationmode  none
attr source  dropPkIfaceDown
attr title  "packets dropped/interface down, sum(packetBytes)"
scalar SubstationSidhu2007.stationSwitch.eth[5] 	rxPkFromHL:count 	3902
attr interpolationmode  none
attr source  rxPkFromHL
attr title  "packet bytes from higher layer, count"
scalar SubstationSidhu2007.stationSwitch.eth[5] 	rxPkFromHL:sum(packetBytes) 	253652
attr interpolationmode  none
attr source  rxPkFromHL
attr title  "packet bytes from higher layer, sum(packetBytes)"
scalar SubstationSidhu2007.stationSwitch.eth[5] 	rxPausePkUnits:count 	0
attr interpolationmode  none
attr title  "pause units received, count"
scalar SubstationSidhu2007.stationSwitch.eth[5] 	rxPausePkUnits:sum 	0
attr interpolationmode  none
attr title  "pause units received, sum"
scalar SubstationSidhu2007.stationSwitch.eth[5] 	txPausePkUnits:count 	0
attr interpolationmode  none
attr title  "pause units sent, count"
scalar SubstationSidhu2007.stationSwitch.eth[5] 	txPausePkUnits:sum 	0
attr interpolationmode  none
attr title  "pause units sent, sum"
scalar SubstationSidhu2007.stationSwitch.eth[5] 	passedUpPk:count 	3618
attr interpolationmode  none
attr source  packetSentToUpper
attr title  "packets passed to higher layer, count"
scalar SubstationSidhu2007.stationSwitch.eth[5] 	passedUpPk:sum(packetBytes) 	3170748
attr interpolationmode  none
attr source  packetSentToUpper
attr title  "packets passed to higher layer, sum(packetBytes)"
scalar SubstationSidhu2007.stationSwitch.eth[5] 	rxPkOk:count 	3618
attr interpolationmode  none
attr source  rxPkOk
attr title  "packets received OK, count"
scalar SubstationSidhu2007.stationSwitch.eth[5] 	rxPkOk:sum(packetBytes) 	3170748
attr interpolationmode  none
attr source  rxPkOk
attr title  "packets received OK, sum(packetBytes)"
scalar SubstationSidhu2007.stationSwitch.eth[5] 	txPk:count 	3902
attr interpolationmode  none
attr source  txPk
attr title  "packets transmitted, count"
scalar SubstationSidhu2007.stationSwitch.eth[5] 	txPk:sum(packetBytes) 	253652
attr interpolationmode  none
attr source  txPk
attr title  "packets transmitted, sum(packetBytes)"
scalar SubstationSidhu2007.stationSwitch.eth[6] 	"simulated time" 	30.974596638799
scalar SubstationSidhu2007.stationSwitch.eth[6] 	full-duplex 	1
scalar SubstationSidhu2007.stationSwitch.eth[6] 	"frames/sec sent" 	125.97419897027
scalar SubstationSidhu2007.stationSwitch.eth[6] 	"frames/sec rcvd" 	116.80539514978
scalar SubstationSidhu2007.stationSwitch.eth[6] 	"bits/sec sent" 	65512.265540149
scalar SubstationSidhu2007.stationSwitch.eth[6] 	"bits/sec rcvd" 	818928.63031593
scalar SubstationSidhu2007.stationSwitch.eth[6] 	"rx channel idle (%)" 	99.173595824394
scalar SubstationSidhu2007.stationSwitch.eth[6] 	"rx channel utilization (%)" 	0.82640417560551
scalar SubstationSidhu2007.stationSwitch.eth[6] 	"rx channel collision (%)" 	0
scalar SubstationSidhu2007.stationSwitch.eth[6] 	collisions 	0
scalar SubstationSidhu2007.stationSwitch.eth[6] 	backoffs 	0
scalar SubstationSidhu2007.stationSwitch.eth[6] 	backoff:count 	0
attr interpolationmode  none
attr title  "backoff, count"
scalar SubstationSidhu2007.stationSwitch.eth[6] 	collision:count 	0
attr interpolationmode  none
attr title  "collision, count"
scalar SubstationSidhu2007.stationSwitch.eth[6] 	droppedPkNotForUs:count 	0
attr interpolationmode  none
attr source  dropPkNotForUs
attr title  "packets dropped/not for us, count"
scalar SubstationSidhu2007.stationSwitch.eth[6] 	droppedPkNotForUs:sum(packetBytes) 	0
attr interpolationmode  none
attr source  dropPkNotForUs
attr title  "packets dropped/not for us, sum(packetBytes)"
scalar SubstationSidhu2007.stationSwitch.eth[6] 	droppedPkBitError:count 	0
attr interpolationmode  none
attr source  dropPkBitError
attr title  "packets dropped/bit error, count"
scalar SubstationSidhu2007.stationSwitch.eth[6] 	droppedPkBitError:sum(packetBytes) 	0
attr interpolationmode  none
attr source  dropPkBitError
attr title  "packets dropped/bit error, sum(packetBytes)"
scalar SubstationSidhu2007.stationSwitch.eth[6] 	droppedPkIfaceDown:count 	0
attr interpolationmode  none
attr source  dropPkIfaceDown
attr title  "packets dropped/interface down, count"
scalar SubstationSidhu2007.stationSwitch.eth[6] 	droppedPkIfaceDown:sum(packetBytes) 	0
attr interpolationmode  none
attr source  dropPkIfaceDown
attr title  "packets dropped/interface down, sum(packetBytes)"
scalar SubstationSidhu2007.stationSwitch.eth[6] 	rxPkFromHL:count 	3902
attr interpolationmode  none
attr source  rxPkFromHL
attr title  "packet bytes from higher layer, count"
scalar SubstationSidhu2007.stationSwitch.eth[6] 	rxPkFromHL:sum(packetBytes) 	253652
attr interpolationmode  none
attr source  rxPkFromHL
attr title  "packet bytes from higher layer, sum(packetBytes)"
scalar SubstationSidhu2007.stationSwitch.eth[6] 	rxPausePkUnits:count 	0
attr interpolationmode  none
attr title  "pause units received, count"
scalar SubstationSidhu2007.stationSwitch.eth[6] 	rxPausePkUnits:sum 	0
attr interpolationmode  none
attr title  "pause units received, sum"
scalar SubstationSidhu2007.stationSwitch.eth[6] 	txPausePkUnits:count 	0
attr interpolationmode  none
attr title  "pause units sent, count"
scalar SubstationSidhu2007.stationSwitch.eth[6] 	txPausePkUnits:sum 	0
attr interpolationmode  none
attr title  "pause units sent, sum"
scalar SubstationSidhu2007.stationSwitch.eth[6] 	passedUpPk:count 	3618
attr interpolationmode  none
attr source  packetSentToUpper
attr title  "packets passed to higher layer, count"
scalar SubstationSidhu2007.stationSwitch.eth[6] 	passedUpPk:sum(packetBytes) 	3170748
attr interpolationmode  none
attr source  packetSentToUpper
attr title  "packets passed to higher layer, sum(packetBytes)"
scalar SubstationSidhu2007.stationSwitch.eth[6] 	rxPkOk:count 	3618
attr interpolationmode  none
attr source  rxPkOk
attr title  "packets received OK, count"
scalar SubstationSidhu2007.stationSwitch.eth[6] 	rxPkOk:sum(packetBytes) 	3170748
attr interpolationmode  none
attr source  rxPkOk
attr title  "packets received OK, sum(packetBytes)"
scalar SubstationSidhu2007.stationSwitch.eth[6] 	txPk:count 	3902
attr interpolationmode  none
attr source  txPk
attr title  "packets transmitted, count"
scalar SubstationSidhu2007.stationSwitch.eth[6] 	txPk:sum(packetBytes) 	253652
attr interpolationmode  none
attr source  txPk
attr title  "packets transmitted, sum(packetBytes)"
scalar SubstationSidhu2007.stationSwitch.eth[7] 	"simulated time" 	30.974596638799
scalar SubstationSidhu2007.stationSwitch.eth[7] 	full-duplex 	1
scalar SubstationSidhu2007.stationSwitch.eth[7] 	"frames/sec sent" 	125.97419897027
scalar SubstationSidhu2007.stationSwitch.eth[7] 	"frames/sec rcvd" 	116.80539514978
scalar SubstationSidhu2007.stationSwitch.eth[7] 	"bits/sec sent" 	65512.265540149
scalar SubstationSidhu2007.stationSwitch.eth[7] 	"bits/sec rcvd" 	818928.63031593
scalar SubstationSidhu2007.stationSwitch.eth[7] 	"rx channel idle (%)" 	99.173595824394
scalar SubstationSidhu2007.stationSwitch.eth[7] 	"rx channel utilization (%)" 	0.82640417560551
scalar SubstationSidhu2007.stationSwitch.eth[7] 	"rx channel collision (%)" 	0
scalar SubstationSidhu2007.stationSwitch.eth[7] 	collisions 	0
scalar SubstationSidhu2007.stationSwitch.eth[7] 	backoffs 	0
scalar SubstationSidhu2007.stationSwitch.eth[7] 	backoff:count 	0
attr interpolationmode  none
attr title  "backoff, count"
scalar SubstationSidhu2007.stationSwitch.eth[7] 	collision:count 	0
attr interpolationmode  none
attr title  "collision, count"
scalar SubstationSidhu2007.stationSwitch.eth[7] 	droppedPkNotForUs:count 	0
attr interpolationmode  none
attr source  dropPkNotForUs
attr title  "packets dropped/not for us, count"
scalar SubstationSidhu2007.stationSwitch.eth[7] 	droppedPkNotForUs:sum(packetBytes) 	0
attr interpolationmode  none
attr source  dropPkNotForUs
attr title  "packets dropped/not for us, sum(packetBytes)"
scalar SubstationSidhu2007.stationSwitch.eth[7] 	droppedPkBitError:count 	0
attr interpolationmode  none
attr source  dropPkBitError
attr title  "packets dropped/bit error, count"
scalar SubstationSidhu2007.stationSwitch.eth[7] 	droppedPkBitError:sum(packetBytes) 	0
attr interpolationmode  none
attr source  dropPkBitError
attr title  "packets dropped/bit error, sum(packetBytes)"
scalar SubstationSidhu2007.stationSwitch.eth[7] 	droppedPkIfaceDown:count 	0
attr interpolationmode  none
attr source  dropPkIfaceDown
attr title  "packets dropped/interface down, count"
scalar SubstationSidhu2007.stationSwitch.eth[7] 	droppedPkIfaceDown:sum(packetBytes) 	0
attr interpolationmode  none
attr source  dropPkIfaceDown
attr title  "packets dropped/interface down, sum(packetBytes)"
scalar SubstationSidhu2007.stationSwitch.eth[7] 	rxPkFromHL:count 	3902
attr interpolationmode  none
attr source  rxPkFromHL
attr title  "packet bytes from higher layer, count"
scalar SubstationSidhu2007.stationSwitch.eth[7] 	rxPkFromHL:sum(packetBytes) 	253652
attr interpolationmode  none
attr source  rxPkFromHL
attr title  "packet bytes from higher layer, sum(packetBytes)"
scalar SubstationSidhu2007.stationSwitch.eth[7] 	rxPausePkUnits:count 	0
attr interpolationmode  none
attr title  "pause units received, count"
scalar SubstationSidhu2007.stationSwitch.eth[7] 	rxPausePkUnits:sum 	0
attr interpolationmode  none
attr title  "pause units received, sum"
scalar SubstationSidhu2007.stationSwitch.eth[7] 	txPausePkUnits:count 	0
attr interpolationmode  none
attr title  "pause units sent, count"
scalar SubstationSidhu2007.stationSwitch.eth[7] 	txPausePkUnits:sum 	0
attr interpolationmode  none
attr title  "pause units sent, sum"
scalar SubstationSidhu2007.stationSwitch.eth[7] 	passedUpPk:count 	3618
attr interpolationmode  none
attr source  packetSentToUpper
attr title  "packets passed to higher layer, count"
scalar SubstationSidhu2007.stationSwitch.eth[7] 	passedUpPk:sum(packetBytes) 	3170748
attr interpolationmode  none
attr source  packetSentToUpper
attr title  "packets passed to higher layer, sum(packetBytes)"
scalar SubstationSidhu2007.stationSwitch.eth[7] 	rxPkOk:count 	3618
attr interpolationmode  none
attr source  rxPkOk
attr title  "packets received OK, count"
scalar SubstationSidhu2007.stationSwitch.eth[7] 	rxPkOk:sum(packetBytes) 	3170748
attr interpolationmode  none
attr source  rxPkOk
attr title  "packets received OK, sum(packetBytes)"
scalar SubstationSidhu2007.stationSwitch.eth[7] 	txPk:count 	3902
attr interpolationmode  none
attr source  txPk
attr title  "packets transmitted, count"
scalar SubstationSidhu2007.stationSwitch.eth[7] 	txPk:sum(packetBytes) 	253652
attr interpolationmode  none
attr source  txPk
attr title  "packets transmitted, sum(packetBytes)"
scalar SubstationSidhu2007.stationSwitch.eth[8] 	"simulated time" 	30.974596638799
scalar SubstationSidhu2007.stationSwitch.eth[8] 	full-duplex 	1
scalar SubstationSidhu2007.stationSwitch.eth[8] 	"frames/sec sent" 	125.97419897027
scalar SubstationSidhu2007.stationSwitch.eth[8] 	"frames/sec rcvd" 	116.80539514978
scalar SubstationSidhu2007.stationSwitch.eth[8] 	"bits/sec sent" 	65512.265540149
scalar SubstationSidhu2007.stationSwitch.eth[8] 	"bits/sec rcvd" 	818928.63031593
scalar SubstationSidhu2007.stationSwitch.eth[8] 	"rx channel idle (%)" 	99.173595824394
scalar SubstationSidhu2007.stationSwitch.eth[8] 	"rx channel utilization (%)" 	0.82640417560551
scalar SubstationSidhu2007.stationSwitch.eth[8] 	"rx channel collision (%)" 	0
scalar SubstationSidhu2007.stationSwitch.eth[8] 	collisions 	0
scalar SubstationSidhu2007.stationSwitch.eth[8] 	backoffs 	0
scalar SubstationSidhu2007.stationSwitch.eth[8] 	backoff:count 	0
attr interpolationmode  none
attr title  "backoff, count"
scalar SubstationSidhu2007.stationSwitch.eth[8] 	collision:count 	0
attr interpolationmode  none
attr title  "collision, count"
scalar SubstationSidhu2007.stationSwitch.eth[8] 	droppedPkNotForUs:count 	0
attr interpolationmode  none
attr source  dropPkNotForUs
attr title  "packets dropped/not for us, count"
scalar SubstationSidhu2007.stationSwitch.eth[8] 	droppedPkNotForUs:sum(packetBytes) 	0
attr interpolationmode  none
attr source  dropPkNotForUs
attr title  "packets dropped/not for us, sum(packetBytes)"
scalar SubstationSidhu2007.stationSwitch.eth[8] 	droppedPkBitError:count 	0
attr interpolationmode  none
attr source  dropPkBitError
attr title  "packets dropped/bit error, count"
scalar SubstationSidhu2007.stationSwitch.eth[8] 	droppedPkBitError:sum(packetBytes) 	0
attr interpolationmode  none
attr source  dropPkBitError
attr title  "packets dropped/bit error, sum(packetBytes)"
scalar SubstationSidhu2007.stationSwitch.eth[8] 	droppedPkIfaceDown:count 	0
attr interpolationmode  none
attr source  dropPkIfaceDown
attr title  "packets dropped/interface down, count"
scalar SubstationSidhu2007.stationSwitch.eth[8] 	droppedPkIfaceDown:sum(packetBytes) 	0
attr interpolationmode  none
attr source  dropPkIfaceDown
attr title  "packets dropped/interface down, sum(packetBytes)"
scalar SubstationSidhu2007.stationSwitch.eth[8] 	rxPkFromHL:count 	3902
attr interpolationmode  none
attr source  rxPkFromHL
attr title  "packet bytes from higher layer, count"
scalar SubstationSidhu2007.stationSwitch.eth[8] 	rxPkFromHL:sum(packetBytes) 	253652
attr interpolationmode  none
attr source  rxPkFromHL
attr title  "packet bytes from higher layer, sum(packetBytes)"
scalar SubstationSidhu2007.stationSwitch.eth[8] 	rxPausePkUnits:count 	0
attr interpolationmode  none
attr title  "pause units received, count"
scalar SubstationSidhu2007.stationSwitch.eth[8] 	rxPausePkUnits:sum 	0
attr interpolationmode  none
attr title  "pause units received, sum"
scalar SubstationSidhu2007.stationSwitch.eth[8] 	txPausePkUnits:count 	0
attr interpolationmode  none
attr title  "pause units sent, count"
scalar SubstationSidhu2007.stationSwitch.eth[8] 	txPausePkUnits:sum 	0
attr interpolationmode  none
attr title  "pause units sent, sum"
scalar SubstationSidhu2007.stationSwitch.eth[8] 	passedUpPk:count 	3618
attr interpolationmode  none
attr source  packetSentToUpper
attr title  "packets passed to higher layer, count"
scalar SubstationSidhu2007.stationSwitch.eth[8] 	passedUpPk:sum(packetBytes) 	3170748
attr interpolationmode  none
attr source  packetSentToUpper
attr title  "packets passed to higher layer, sum(packetBytes)"
scalar SubstationSidhu2007.stationSwitch.eth[8] 	rxPkOk:count 	3618
attr interpolationmode  none
attr source  rxPkOk
attr title  "packets received OK, count"
scalar SubstationSidhu2007.stationSwitch.eth[8] 	rxPkOk:sum(packetBytes) 	3170748
attr interpolationmode  none
attr source  rxPkOk
attr title  "packets received OK, sum(packetBytes)"
scalar SubstationSidhu2007.stationSwitch.eth[8] 	txPk:count 	3902
attr interpolationmode  none
attr source  txPk
attr title  "packets transmitted, count"
scalar SubstationSidhu2007.stationSwitch.eth[8] 	txPk:sum(packetBytes) 	253652
attr interpolationmode  none
attr source  txPk
attr title  "packets transmitted, sum(packetBytes)"
scalar SubstationSidhu2007.stationSwitch.eth[9] 	"simulated time" 	30.974596638799
scalar SubstationSidhu2007.stationSwitch.eth[9] 	full-duplex 	1
scalar SubstationSidhu2007.stationSwitch.eth[9] 	"frames/sec sent" 	1157.9166120625
scalar SubstationSidhu2007.stationSwitch.eth[9] 	"frames/sec rcvd" 	489.04591645353
scalar SubstationSidhu2007.stationSwitch.eth[9] 	"bits/sec sent" 	7678879.3982895
scalar SubstationSidhu2007.stationSwitch.eth[9] 	"bits/sec rcvd" 	251765.53841646
scalar SubstationSidhu2007.stationSwitch.eth[9] 	"rx channel idle (%)" 	99.716935522931
scalar SubstationSidhu2007.stationSwitch.eth[9] 	"rx channel utilization (%)" 	0.28306447706949
scalar SubstationSidhu2007.stationSwitch.eth[9] 	"rx channel collision (%)" 	0
scalar SubstationSidhu2007.stationSwitch.eth[9] 	collisions 	0
scalar SubstationSidhu2007.stationSwitch.eth[9] 	backoffs 	0
scalar SubstationSidhu2007.stationSwitch.eth[9] 	backoff:count 	0
attr interpolationmode  none
attr title  "backoff, count"
scalar SubstationSidhu2007.stationSwitch.eth[9] 	collision:count 	0
attr interpolationmode  none
attr title  "collision, count"
scalar SubstationSidhu2007.stationSwitch.eth[9] 	droppedPkNotForUs:count 	0
attr interpolationmode  none
attr source  dropPkNotForUs
attr title  "packets dropped/not for us, count"
scalar SubstationSidhu2007.stationSwitch.eth[9] 	droppedPkNotForUs:sum(packetBytes) 	0
attr interpolationmode  none
attr source  dropPkNotForUs
attr title  "packets dropped/not for us, sum(packetBytes)"
scalar SubstationSidhu2007.stationSwitch.eth[9] 	droppedPkBitError:count 	0
attr interpolationmode  none
attr source  dropPkBitError
attr title  "packets dropped/bit error, count"
scalar SubstationSidhu2007.stationSwitch.eth[9] 	droppedPkBitError:sum(packetBytes) 	0
attr interpolationmode  none
attr source  dropPkBitError
attr title  "packets dropped/bit error, sum(packetBytes)"
scalar SubstationSidhu2007.stationSwitch.eth[9] 	droppedPkIfaceDown:count 	0
attr interpolationmode  none
attr source  dropPkIfaceDown
attr title  "packets dropped/interface down, count"
scalar SubstationSidhu2007.stationSwitch.eth[9] 	droppedPkIfaceDown:sum(packetBytes) 	0
attr interpolationmode  none
attr source  dropPkIfaceDown
attr title  "packets dropped/interface down, sum(packetBytes)"
scalar SubstationSidhu2007.stationSwitch.eth[9] 	rxPkFromHL:count 	35866
attr interpolationmode  none
attr source  rxPkFromHL
attr title  "packet bytes from higher layer, count"
scalar SubstationSidhu2007.stationSwitch.eth[9] 	rxPkFromHL:sum(packetBytes) 	29731274
attr interpolationmode  none
attr source  rxPkFromHL
attr title  "packet bytes from higher layer, sum(packetBytes)"
scalar SubstationSidhu2007.stationSwitch.eth[9] 	rxPausePkUnits:count 	0
attr interpolationmode  none
attr title  "pause units received, count"
scalar SubstationSidhu2007.stationSwitch.eth[9] 	rxPausePkUnits:sum 	0
attr interpolationmode  none
attr title  "pause units received, sum"
scalar SubstationSidhu2007.stationSwitch.eth[9] 	txPausePkUnits:count 	0
attr interpolationmode  none
attr title  "pause units sent, count"
scalar SubstationSidhu2007.stationSwitch.eth[9] 	txPausePkUnits:sum 	0
attr interpolationmode  none
attr title  "pause units sent, sum"
scalar SubstationSidhu2007.stationSwitch.eth[9] 	passedUpPk:count 	15148
attr interpolationmode  none
attr source  packetSentToUpper
attr title  "packets passed to higher layer, count"
scalar SubstationSidhu2007.stationSwitch.eth[9] 	passedUpPk:sum(packetBytes) 	974792
attr interpolationmode  none
attr source  packetSentToUpper
attr title  "packets passed to higher layer, sum(packetBytes)"
scalar SubstationSidhu2007.stationSwitch.eth[9] 	rxPkOk:count 	15148
attr interpolationmode  none
attr source  rxPkOk
attr title  "packets received OK, count"
scalar SubstationSidhu2007.stationSwitch.eth[9] 	rxPkOk:sum(packetBytes) 	974792
attr interpolationmode  none
attr source  rxPkOk
attr title  "packets received OK, sum(packetBytes)"
scalar SubstationSidhu2007.stationSwitch.eth[9] 	txPk:count 	35866
attr interpolationmode  none
attr source  txPk
attr title  "packets transmitted, count"
scalar SubstationSidhu2007.stationSwitch.eth[9] 	txPk:sum(packetBytes) 	29731274
attr interpolationmode  none
attr source  txPk
attr title  "packets transmitted, sum(packetBytes)"
scalar SubstationSidhu2007.stationSwitch.relay 	"processed frames" 	53220
scalar SubstationSidhu2007.stationSwitch.relay 	"dropped frames" 	0
scalar SubstationSidhu2007.T1.breaker[0].queue.pauseQueue 	queueLength:max 	0
attr interpolationmode  sample-hold
attr title  "queue length, max"
scalar SubstationSidhu2007.T1.breaker[0].queue.pauseQueue 	queueLength:timeavg 	0
attr interpolationmode  sample-hold
attr title  "queue length, timeavg"
statistic SubstationSidhu2007.T1.breaker[0].queue.pauseQueue 	queueingTime:histogram
field count 0
field mean 0
field stddev -nan
field sum 0
field sqrsum 0
field min 0
field max 0
attr interpolationmode  none
attr title  "queueing time, histogram"
bin	-INF	0
bin	-0.5	0
bin	-0.46666666666667	0
bin	-0.43333333333333	0
bin	-0.4	0
bin	-0.36666666666667	0
bin	-0.33333333333333	0
bin	-0.3	0
bin	-0.26666666666667	0
bin	-0.23333333333333	0
bin	-0.2	0
bin	-0.16666666666667	0
bin	-0.13333333333333	0
bin	-0.1	0
bin	-0.066666666666667	0
bin	-0.033333333333333	0
bin	-6.9388939039072e-18	0
bin	0.033333333333333	0
bin	0.066666666666667	0
bin	0.1	0
bin	0.13333333333333	0
bin	0.16666666666667	0
bin	0.2	0
bin	0.23333333333333	0
bin	0.26666666666667	0
bin	0.3	0
bin	0.33333333333333	0
bin	0.36666666666667	0
bin	0.4	0
bin	0.43333333333333	0
bin	0.46666666666667	0
bin	0.5	0
scalar SubstationSidhu2007.T1.breaker[0].queue.pauseQueue 	dropPk:count 	0
attr interpolationmode  none
attr source  dropPkByQueue
attr title  "dropped packets, count"
scalar SubstationSidhu2007.T1.breaker[0].queue.pauseQueue 	dropPk:sum(packetBytes) 	0
attr interpolationmode  none
attr source  dropPkByQueue
attr title  "dropped packets, sum(packetBytes)"
scalar SubstationSidhu2007.T1.breaker[0].queue.pauseQueue 	rcvdPk:count 	0
attr interpolationmode  none
attr title  "received packets, count"
scalar SubstationSidhu2007.T1.breaker[0].queue.pauseQueue 	rcvdPk:sum(packetBytes) 	0
attr interpolationmode  none
attr title  "received packets, sum(packetBytes)"
scalar SubstationSidhu2007.T1.breaker[0].queue.dataQueue 	queueLength:max 	100
attr interpolationmode  sample-hold
attr title  "queue length, max"
scalar SubstationSidhu2007.T1.breaker[0].queue.dataQueue 	queueLength:timeavg 	0.057596694697206
attr interpolationmode  sample-hold
attr title  "queue length, timeavg"
statistic SubstationSidhu2007.T1.breaker[0].queue.dataQueue 	queueingTime:histogram
field count 1202
field mean 0.0014842216189468
field stddev 0.0021448948753929
field sum 1.784034385974
field sqrsum 0.0081731918104175
field min 0
field max 0.0121364799
attr interpolationmode  none
attr title  "queueing time, histogram"
bin	-INF	0
bin	-0.005822159952	0
bin	-0.0050458719584	0
bin	-0.0042695839648	0
bin	-0.0034932959712	0
bin	-0.0027170079776	0
bin	-0.001940719984	0
bin	-0.0011644319904	0
bin	-0.0003881439968	595
bin	0.0003881439968	108
bin	0.0011644319904	108
bin	0.001940719984	126
bin	0.0027170079776	108
bin	0.0034932959712	92
bin	0.0042695839648	7
bin	0.0050458719584	6
bin	0.005822159952	6
bin	0.0065984479456	7
bin	0.0073747359392	6
bin	0.0081510239328	6
bin	0.0089273119264	7
bin	0.00970359992	6
bin	0.0104798879136	6
bin	0.0112561759072	7
bin	0.0120324639008	1
bin	0.0128087518944	0
bin	0.013585039888	0
bin	0.0143613278816	0
bin	0.0151376158752	0
bin	0.0159139038688	0
bin	0.0166901918624	0
bin	0.017466479856	0
scalar SubstationSidhu2007.T1.breaker[0].queue.dataQueue 	dropPk:count 	2
attr interpolationmode  none
attr source  dropPkByQueue
attr title  "dropped packets, count"
scalar SubstationSidhu2007.T1.breaker[0].queue.dataQueue 	dropPk:sum(packetBytes) 	2716
attr interpolationmode  none
attr source  dropPkByQueue
attr title  "dropped packets, sum(packetBytes)"
scalar SubstationSidhu2007.T1.breaker[0].queue.dataQueue 	rcvdPk:count 	1204
attr interpolationmode  none
attr title  "received packets, count"
scalar SubstationSidhu2007.T1.breaker[0].queue.dataQueue 	rcvdPk:sum(packetBytes) 	1059376
attr interpolationmode  none
attr title  "received packets, sum(packetBytes)"
scalar SubstationSidhu2007.T1.breaker[0].mac 	"simulated time" 	30.974596638799
scalar SubstationSidhu2007.T1.breaker[0].mac 	full-duplex 	1
scalar SubstationSidhu2007.T1.breaker[0].mac 	"frames/sec sent" 	38.805993634615
scalar SubstationSidhu2007.T1.breaker[0].mac 	"frames/sec rcvd" 	108.73426502611
scalar SubstationSidhu2007.T1.breaker[0].mac 	"bits/sec sent" 	272910.09140734
scalar SubstationSidhu2007.T1.breaker[0].mac 	"bits/sec rcvd" 	56587.274418433
scalar SubstationSidhu2007.T1.breaker[0].mac 	"rx channel idle (%)" 	99.936416540852
scalar SubstationSidhu2007.T1.breaker[0].mac 	"rx channel utilization (%)" 	0.063583459147714
scalar SubstationSidhu2007.T1.breaker[0].mac 	"rx channel collision (%)" 	0
scalar SubstationSidhu2007.T1.breaker[0].mac 	collisions 	0
scalar SubstationSidhu2007.T1.breaker[0].mac 	backoffs 	0
scalar SubstationSidhu2007.T1.breaker[0].mac 	backoff:count 	0
attr interpolationmode  none
attr title  "backoff, count"
scalar SubstationSidhu2007.T1.breaker[0].mac 	collision:count 	0
attr interpolationmode  none
attr title  "collision, count"
scalar SubstationSidhu2007.T1.breaker[0].mac 	droppedPkNotForUs:count 	2
attr interpolationmode  none
attr source  dropPkNotForUs
attr title  "packets dropped/not for us, count"
scalar SubstationSidhu2007.T1.breaker[0].mac 	droppedPkNotForUs:sum(packetBytes) 	144
attr interpolationmode  none
attr source  dropPkNotForUs
attr title  "packets dropped/not for us, sum(packetBytes)"
scalar SubstationSidhu2007.T1.breaker[0].mac 	droppedPkBitError:count 	0
attr interpolationmode  none
attr source  dropPkBitError
attr title  "packets dropped/bit error, count"
scalar SubstationSidhu2007.T1.breaker[0].mac 	droppedPkBitError:sum(packetBytes) 	0
attr interpolationmode  none
attr source  dropPkBitError
attr title  "packets dropped/bit error, sum(packetBytes)"
scalar SubstationSidhu2007.T1.breaker[0].mac 	droppedPkIfaceDown:count 	0
attr interpolationmode  none
attr source  dropPkIfaceDown
attr title  "packets dropped/interface down, count"
scalar SubstationSidhu2007.T1.breaker[0].mac 	droppedPkIfaceDown:sum(packetBytes) 	0
attr interpolationmode  none
attr source  dropPkIfaceDown
attr title  "packets dropped/interface down, sum(packetBytes)"
scalar SubstationSidhu2007.T1.breaker[0].mac 	rxPkFromHL:count 	1202
attr interpolationmode  none
attr source  rxPkFromHL
attr title  "packet bytes from higher layer, count"
scalar SubstationSidhu2007.T1.breaker[0].mac 	rxPkFromHL:sum(packetBytes) 	1056660
attr interpolationmode  none
attr source  rxPkFromHL
attr title  "packet bytes from higher layer, sum(packetBytes)"
scalar SubstationSidhu2007.T1.breaker[0].mac 	rxPausePkUnits:count 	0
attr interpolationmode  none
attr title  "pause units received, count"
scalar SubstationSidhu2007.T1.breaker[0].mac 	rxPausePkUnits:sum 	0
attr interpolationmode  none
attr title  "pause units received, sum"
scalar SubstationSidhu2007.T1.breaker[0].mac 	txPausePkUnits:count 	0
attr interpolationmode  none
attr title  "pause units sent, count"
scalar SubstationSidhu2007.T1.breaker[0].mac 	txPausePkUnits:sum 	0
attr interpolationmode  none
attr title  "pause units sent, sum"
scalar SubstationSidhu2007.T1.breaker[0].mac 	passedUpPk:count 	3368
attr interpolationmode  none
attr source  packetSentToUpper
attr title  "packets passed to higher layer, count"
scalar SubstationSidhu2007.T1.breaker[0].mac 	passedUpPk:sum(packetBytes) 	219096
attr interpolationmode  none
attr source  packetSentToUpper
attr title  "packets passed to higher layer, sum(packetBytes)"
scalar SubstationSidhu2007.T1.breaker[0].mac 	rxPkOk:count 	3368
attr interpolationmode  none
attr source  rxPkOk
attr title  "packets received OK, count"
scalar SubstationSidhu2007.T1.breaker[0].mac 	rxPkOk:sum(packetBytes) 	219096
attr interpolationmode  none
attr source  rxPkOk
attr title  "packets received OK, sum(packetBytes)"
scalar SubstationSidhu2007.T1.breaker[0].mac 	txPk:count 	1202
attr interpolationmode  none
attr source  txPk
attr title  "packets transmitted, count"
scalar SubstationSidhu2007.T1.breaker[0].mac 	txPk:sum(packetBytes) 	1056660
attr interpolationmode  none
attr source  txPk
attr title  "packets transmitted, sum(packetBytes)"
scalar SubstationSidhu2007.T1.breaker[0].encap 	pauseSent:count 	0
attr title  "pause sent, count"
scalar SubstationSidhu2007.T1.breaker[0].encap 	pauseSent:sum 	0
attr title  "pause sent, sum"
scalar SubstationSidhu2007.T1.breaker[0].encap 	decapPk:count 	3363
attr interpolationmode  none
attr source  decapPk
attr title  "packets decapsulated, count"
scalar SubstationSidhu2007.T1.breaker[0].encap 	decapPk:sum(packetBytes) 	77112
attr interpolationmode  none
attr source  decapPk
attr title  "packets decapsulated, sum(packetBytes)"
scalar SubstationSidhu2007.T1.breaker[0].encap 	encapPk:count 	1204
attr interpolationmode  none
attr source  encapPk
attr title  "packets encapsulated, count"
scalar SubstationSidhu2007.T1.breaker[0].encap 	encapPk:sum(packetBytes) 	1036608
attr interpolationmode  none
attr source  encapPk
attr title  "packets encapsulated, sum(packetBytes)"
scalar SubstationSidhu2007.T1.breaker[0].networkLayer.arp 	failedResolution:count 	0
attr title  "ARP failed resolutions, count"
scalar SubstationSidhu2007.T1.breaker[0].networkLayer.arp 	initiatedResolution:count 	1
attr title  "ARP initiated resolutions, count"
scalar SubstationSidhu2007.T1.breaker[0].networkLayer.arp 	sentReplies:count 	0
attr title  "ARP replies sent, count"
scalar SubstationSidhu2007.T1.breaker[0].networkLayer.arp 	sentReq:count 	3
attr title  "ARP request sent, count"
statistic SubstationSidhu2007.T1.breaker[0].iec61850trafgen 	eteTrip1A:histogram
field count 2795
field mean 4.185805717102e-05
field stddev 1.2774389520678e-05
field sum 0.116993269793
field sqrsum 5.3530499428072e-06
field min 2.3999999e-05
field max 6.6239992e-05
attr interpolationmode  none
attr source  messageAge(rcvdTrip1A)
attr title  "eteTrip1A, histogram"
attr unit  s
bin	-INF	0
bin	2.8800025e-06	0
bin	5.6960020333333e-06	0
bin	8.5120015666667e-06	0
bin	1.13280011e-05	0
bin	1.4144000633333e-05	0
bin	1.6960000166667e-05	0
bin	1.97759997e-05	0
bin	2.2591999233333e-05	545
bin	2.5407998766667e-05	0
bin	2.82239983e-05	544
bin	3.1039997833333e-05	15
bin	3.3855997366667e-05	0
bin	3.66719969e-05	14
bin	3.9487996433333e-05	0
bin	4.2303995966667e-05	545
bin	4.51199955e-05	0
bin	4.7935995033333e-05	0
bin	5.0751994566667e-05	559
bin	5.35679941e-05	0
bin	5.6383993633333e-05	558
bin	5.9199993166667e-05	1
bin	6.20159927e-05	0
bin	6.4831992233333e-05	14
bin	6.7647991766667e-05	0
bin	7.04639913e-05	0
bin	7.3279990833333e-05	0
bin	7.6095990366667e-05	0
bin	7.89119899e-05	0
bin	8.1727989433333e-05	0
bin	8.4543988966667e-05	0
bin	8.73599885e-05	0
scalar SubstationSidhu2007.T1.breaker[0].iec61850trafgen 	sentPk:count 	0
attr interpolationmode  none
attr source  sentPk
attr title  "packets sent, count"
scalar SubstationSidhu2007.T1.breaker[0].iec61850trafgen 	sentPk:sum(packetBytes) 	0
attr interpolationmode  none
attr source  sentPk
attr title  "packets sent, sum(packetBytes)"
scalar SubstationSidhu2007.T1.breaker[0].iec61850trafgen 	rcvdPk:count 	2795
attr interpolationmode  none
attr source  rcvdPk
attr title  "packets received, count"
scalar SubstationSidhu2007.T1.breaker[0].iec61850trafgen 	rcvdPk:sum(packetBytes) 	64844
attr interpolationmode  none
attr source  rcvdPk
attr title  "packets received, sum(packetBytes)"
statistic SubstationSidhu2007.T1.breaker[0].iec61850trafgen 	endToEndDelay:histogram
field count 2795
field mean 4.185805717102e-05
field stddev 1.2774389520678e-05
field sum 0.116993269793
field sqrsum 5.3530499428072e-06
field min 2.3999999e-05
field max 6.6239992e-05
attr interpolationmode  none
attr source  messageAge(rcvdPk)
attr title  "end-to-end delay, histogram"
attr unit  s
bin	-INF	0
bin	2.8800025e-06	0
bin	5.6960020333333e-06	0
bin	8.5120015666667e-06	0
bin	1.13280011e-05	0
bin	1.4144000633333e-05	0
bin	1.6960000166667e-05	0
bin	1.97759997e-05	0
bin	2.2591999233333e-05	545
bin	2.5407998766667e-05	0
bin	2.82239983e-05	544
bin	3.1039997833333e-05	15
bin	3.3855997366667e-05	0
bin	3.66719969e-05	14
bin	3.9487996433333e-05	0
bin	4.2303995966667e-05	545
bin	4.51199955e-05	0
bin	4.7935995033333e-05	0
bin	5.0751994566667e-05	559
bin	5.35679941e-05	0
bin	5.6383993633333e-05	558
bin	5.9199993166667e-05	1
bin	6.20159927e-05	0
bin	6.4831992233333e-05	14
bin	6.7647991766667e-05	0
bin	7.04639913e-05	0
bin	7.3279990833333e-05	0
bin	7.6095990366667e-05	0
bin	7.89119899e-05	0
bin	8.1727989433333e-05	0
bin	8.4543988966667e-05	0
bin	8.73599885e-05	0
scalar SubstationSidhu2007.T1.breaker[0].mms 	numActiveSessions:max 	521
attr interpolationmode  sample-hold
attr source  sum(connect)
attr title  "number of active sessions, max"
scalar SubstationSidhu2007.T1.breaker[0].mms 	numActiveSessions:timeavg 	235.20359717162
attr interpolationmode  sample-hold
attr source  sum(connect)
attr title  "number of active sessions, timeavg"
scalar SubstationSidhu2007.T1.breaker[0].mms 	numSessions:last 	521
attr source  sum(connect+1)/2
attr title  "total number of sessions, last"
scalar SubstationSidhu2007.T1.breaker[0].mms 	sentPk:count 	0
attr interpolationmode  none
attr source  sentPk
attr title  "packets sent, count"
scalar SubstationSidhu2007.T1.breaker[0].mms 	sentPk:sum(packetBytes) 	0
attr interpolationmode  none
attr source  sentPk
attr title  "packets sent, sum(packetBytes)"
scalar SubstationSidhu2007.T1.breaker[0].mms 	rcvdPk:count 	0
attr interpolationmode  none
attr source  rcvdPk
attr title  "packets received, count"
scalar SubstationSidhu2007.T1.breaker[0].mms 	rcvdPk:sum(packetBytes) 	0
attr interpolationmode  none
attr source  rcvdPk
attr title  "packets received, sum(packetBytes)"
statistic SubstationSidhu2007.T1.breaker[0].mms 	endToEndDelay:histogram
field count 0
field mean 0
field stddev -nan
field sum 0
field sqrsum 0
field min 0
field max 0
attr interpolationmode  none
attr source  messageAge(rcvdPk)
attr title  "end-to-end delay, histogram"
attr unit  s
bin	-INF	0
bin	-0.5	0
bin	-0.46666666666667	0
bin	-0.43333333333333	0
bin	-0.4	0
bin	-0.36666666666667	0
bin	-0.33333333333333	0
bin	-0.3	0
bin	-0.26666666666667	0
bin	-0.23333333333333	0
bin	-0.2	0
bin	-0.16666666666667	0
bin	-0.13333333333333	0
bin	-0.1	0
bin	-0.066666666666667	0
bin	-0.033333333333333	0
bin	-6.9388939039072e-18	0
bin	0.033333333333333	0
bin	0.066666666666667	0
bin	0.1	0
bin	0.13333333333333	0
bin	0.16666666666667	0
bin	0.2	0
bin	0.23333333333333	0
bin	0.26666666666667	0
bin	0.3	0
bin	0.33333333333333	0
bin	0.36666666666667	0
bin	0.4	0
bin	0.43333333333333	0
bin	0.46666666666667	0
bin	0.5	0
scalar SubstationSidhu2007.T1.breaker[0].IPburst 	sentPk:count 	20
attr interpolationmode  none
attr source  sentPk
attr title  "packets sent, count"
scalar SubstationSidhu2007.T1.breaker[0].IPburst 	sentPk:sum(packetBytes) 	1000000
attr interpolationmode  none
attr source  sentPk
attr title  "packets sent, sum(packetBytes)"
scalar SubstationSidhu2007.T1.breaker[0].IPburst 	rcvdPk:count 	19
attr interpolationmode  none
attr source  rcvdPk
attr title  "packets received, count"
scalar SubstationSidhu2007.T1.breaker[0].IPburst 	rcvdPk:sum(packetBytes) 	684
attr interpolationmode  none
attr source  rcvdPk
attr title  "packets received, sum(packetBytes)"
statistic SubstationSidhu2007.T1.breaker[0].IPburst 	endToEndDelay:histogram
field count 19
field mean 2.0639999e-05
field stddev 3.4563520229757e-13
field sum 0.000392159981
field sqrsum 8.09418161568e-09
field min 2.0639999e-05
field max 2.0639999e-05
attr interpolationmode  none
attr source  messageAge(rcvdPk)
attr title  "end-to-end delay, histogram"
attr unit  s
bin	-INF	0
bin	-0.499979360001	0
bin	-0.46664602666767	0
bin	-0.43331269333433	0
bin	-0.399979360001	0
bin	-0.36664602666767	0
bin	-0.33331269333433	0
bin	-0.299979360001	0
bin	-0.26664602666767	0
bin	-0.23331269333433	0
bin	-0.199979360001	0
bin	-0.16664602666767	0
bin	-0.13331269333433	0
bin	-0.099979360001	0
bin	-0.066646026667667	0
bin	-0.033312693334333	0
bin	2.0639998999976e-05	19
bin	0.033353973332333	0
bin	0.066687306665667	0
bin	0.100020639999	0
bin	0.13335397333233	0
bin	0.16668730666567	0
bin	0.200020639999	0
bin	0.23335397333233	0
bin	0.26668730666567	0
bin	0.300020639999	0
bin	0.33335397333233	0
bin	0.36668730666567	0
bin	0.400020639999	0
bin	0.43335397333233	0
bin	0.46668730666567	0
bin	0.500020639999	0
scalar SubstationSidhu2007.T1.breaker[1].queue.pauseQueue 	queueLength:max 	0
attr interpolationmode  sample-hold
attr title  "queue length, max"
scalar SubstationSidhu2007.T1.breaker[1].queue.pauseQueue 	queueLength:timeavg 	0
attr interpolationmode  sample-hold
attr title  "queue length, timeavg"
statistic SubstationSidhu2007.T1.breaker[1].queue.pauseQueue 	queueingTime:histogram
field count 0
field mean 0
field stddev -nan
field sum 0
field sqrsum 0
field min 0
field max 0
attr interpolationmode  none
attr title  "queueing time, histogram"
bin	-INF	0
bin	-0.5	0
bin	-0.46666666666667	0
bin	-0.43333333333333	0
bin	-0.4	0
bin	-0.36666666666667	0
bin	-0.33333333333333	0
bin	-0.3	0
bin	-0.26666666666667	0
bin	-0.23333333333333	0
bin	-0.2	0
bin	-0.16666666666667	0
bin	-0.13333333333333	0
bin	-0.1	0
bin	-0.066666666666667	0
bin	-0.033333333333333	0
bin	-6.9388939039072e-18	0
bin	0.033333333333333	0
bin	0.066666666666667	0
bin	0.1	0
bin	0.13333333333333	0
bin	0.16666666666667	0
bin	0.2	0
bin	0.23333333333333	0
bin	0.26666666666667	0
bin	0.3	0
bin	0.33333333333333	0
bin	0.36666666666667	0
bin	0.4	0
bin	0.43333333333333	0
bin	0.46666666666667	0
bin	0.5	0
scalar SubstationSidhu2007.T1.breaker[1].queue.pauseQueue 	dropPk:count 	0
attr interpolationmode  none
attr source  dropPkByQueue
attr title  "dropped packets, count"
scalar SubstationSidhu2007.T1.breaker[1].queue.pauseQueue 	dropPk:sum(packetBytes) 	0
attr interpolationmode  none
attr source  dropPkByQueue
attr title  "dropped packets, sum(packetBytes)"
scalar SubstationSidhu2007.T1.breaker[1].queue.pauseQueue 	rcvdPk:count 	0
attr interpolationmode  none
attr title  "received packets, count"
scalar SubstationSidhu2007.T1.breaker[1].queue.pauseQueue 	rcvdPk:sum(packetBytes) 	0
attr interpolationmode  none
attr title  "received packets, sum(packetBytes)"
scalar SubstationSidhu2007.T1.breaker[1].queue.dataQueue 	queueLength:max 	100
attr interpolationmode  sample-hold
attr title  "queue length, max"
scalar SubstationSidhu2007.T1.breaker[1].queue.dataQueue 	queueLength:timeavg 	0.057596694697206
attr interpolationmode  sample-hold
attr title  "queue length, timeavg"
statistic SubstationSidhu2007.T1.breaker[1].queue.dataQueue 	queueingTime:histogram
field count 1202
field mean 0.0014842216189468
field stddev 0.0021448948753929
field sum 1.784034385974
field sqrsum 0.0081731918104175
field min 0
field max 0.0121364799
attr interpolationmode  none
attr title  "queueing time, histogram"
bin	-INF	0
bin	-0.005822159952	0
bin	-0.0050458719584	0
bin	-0.0042695839648	0
bin	-0.0034932959712	0
bin	-0.0027170079776	0
bin	-0.001940719984	0
bin	-0.0011644319904	0
bin	-0.0003881439968	595
bin	0.0003881439968	108
bin	0.0011644319904	108
bin	0.001940719984	126
bin	0.0027170079776	108
bin	0.0034932959712	92
bin	0.0042695839648	7
bin	0.0050458719584	6
bin	0.005822159952	6
bin	0.0065984479456	7
bin	0.0073747359392	6
bin	0.0081510239328	6
bin	0.0089273119264	7
bin	0.00970359992	6
bin	0.0104798879136	6
bin	0.0112561759072	7
bin	0.0120324639008	1
bin	0.0128087518944	0
bin	0.013585039888	0
bin	0.0143613278816	0
bin	0.0151376158752	0
bin	0.0159139038688	0
bin	0.0166901918624	0
bin	0.017466479856	0
scalar SubstationSidhu2007.T1.breaker[1].queue.dataQueue 	dropPk:count 	2
attr interpolationmode  none
attr source  dropPkByQueue
attr title  "dropped packets, count"
scalar SubstationSidhu2007.T1.breaker[1].queue.dataQueue 	dropPk:sum(packetBytes) 	2716
attr interpolationmode  none
attr source  dropPkByQueue
attr title  "dropped packets, sum(packetBytes)"
scalar SubstationSidhu2007.T1.breaker[1].queue.dataQueue 	rcvdPk:count 	1204
attr interpolationmode  none
attr title  "received packets, count"
scalar SubstationSidhu2007.T1.breaker[1].queue.dataQueue 	rcvdPk:sum(packetBytes) 	1059376
attr interpolationmode  none
attr title  "received packets, sum(packetBytes)"
scalar SubstationSidhu2007.T1.breaker[1].mac 	"simulated time" 	30.974596638799
scalar SubstationSidhu2007.T1.breaker[1].mac 	full-duplex 	1
scalar SubstationSidhu2007.T1.breaker[1].mac 	"frames/sec sent" 	38.805993634615
scalar SubstationSidhu2007.T1.breaker[1].mac 	"frames/sec rcvd" 	108.73426502611
scalar SubstationSidhu2007.T1.breaker[1].mac 	"bits/sec sent" 	272910.09140734
scalar SubstationSidhu2007.T1.breaker[1].mac 	"bits/sec rcvd" 	56587.274418433
scalar SubstationSidhu2007.T1.breaker[1].mac 	"rx channel idle (%)" 	99.936416540852
scalar SubstationSidhu2007.T1.breaker[1].mac 	"rx channel utilization (%)" 	0.063583459147714
scalar SubstationSidhu2007.T1.breaker[1].mac 	"rx channel collision (%)" 	0
scalar SubstationSidhu2007.T1.breaker[1].mac 	collisions 	0
scalar SubstationSidhu2007.T1.breaker[1].mac 	backoffs 	0
scalar SubstationSidhu2007.T1.breaker[1].mac 	backoff:count 	0
attr interpolationmode  none
attr title  "backoff, count"
scalar SubstationSidhu2007.T1.breaker[1].mac 	collision:count 	0
attr interpolationmode  none
attr title  "collision, count"
scalar SubstationSidhu2007.T1.breaker[1].mac 	droppedPkNotForUs:count 	2
attr interpolationmode  none
attr source  dropPkNotForUs
attr title  "packets dropped/not for us, count"
scalar SubstationSidhu2007.T1.breaker[1].mac 	droppedPkNotForUs:sum(packetBytes) 	144
attr interpolationmode  none
attr source  dropPkNotForUs
attr title  "packets dropped/not for us, sum(packetBytes)"
scalar SubstationSidhu2007.T1.breaker[1].mac 	droppedPkBitError:count 	0
attr interpolationmode  none
attr source  dropPkBitError
attr title  "packets dropped/bit error, count"
scalar SubstationSidhu2007.T1.breaker[1].mac 	droppedPkBitError:sum(packetBytes) 	0
attr interpolationmode  none
attr source  dropPkBitError
attr title  "packets dropped/bit error, sum(packetBytes)"
scalar SubstationSidhu2007.T1.breaker[1].mac 	droppedPkIfaceDown:count 	0
attr interpolationmode  none
attr source  dropPkIfaceDown
attr title  "packets dropped/interface down, count"
scalar SubstationSidhu2007.T1.breaker[1].mac 	droppedPkIfaceDown:sum(packetBytes) 	0
attr interpolationmode  none
attr source  dropPkIfaceDown
attr title  "packets dropped/interface down, sum(packetBytes)"
scalar SubstationSidhu2007.T1.breaker[1].mac 	rxPkFromHL:count 	1202
attr interpolationmode  none
attr source  rxPkFromHL
attr title  "packet bytes from higher layer, count"
scalar SubstationSidhu2007.T1.breaker[1].mac 	rxPkFromHL:sum(packetBytes) 	1056660
attr interpolationmode  none
attr source  rxPkFromHL
attr title  "packet bytes from higher layer, sum(packetBytes)"
scalar SubstationSidhu2007.T1.breaker[1].mac 	rxPausePkUnits:count 	0
attr interpolationmode  none
attr title  "pause units received, count"
scalar SubstationSidhu2007.T1.breaker[1].mac 	rxPausePkUnits:sum 	0
attr interpolationmode  none
attr title  "pause units received, sum"
scalar SubstationSidhu2007.T1.breaker[1].mac 	txPausePkUnits:count 	0
attr interpolationmode  none
attr title  "pause units sent, count"
scalar SubstationSidhu2007.T1.breaker[1].mac 	txPausePkUnits:sum 	0
attr interpolationmode  none
attr title  "pause units sent, sum"
scalar SubstationSidhu2007.T1.breaker[1].mac 	passedUpPk:count 	3368
attr interpolationmode  none
attr source  packetSentToUpper
attr title  "packets passed to higher layer, count"
scalar SubstationSidhu2007.T1.breaker[1].mac 	passedUpPk:sum(packetBytes) 	219096
attr interpolationmode  none
attr source  packetSentToUpper
attr title  "packets passed to higher layer, sum(packetBytes)"
scalar SubstationSidhu2007.T1.breaker[1].mac 	rxPkOk:count 	3368
attr interpolationmode  none
attr source  rxPkOk
attr title  "packets received OK, count"
scalar SubstationSidhu2007.T1.breaker[1].mac 	rxPkOk:sum(packetBytes) 	219096
attr interpolationmode  none
attr source  rxPkOk
attr title  "packets received OK, sum(packetBytes)"
scalar SubstationSidhu2007.T1.breaker[1].mac 	txPk:count 	1202
attr interpolationmode  none
attr source  txPk
attr title  "packets transmitted, count"
scalar SubstationSidhu2007.T1.breaker[1].mac 	txPk:sum(packetBytes) 	1056660
attr interpolationmode  none
attr source  txPk
attr title  "packets transmitted, sum(packetBytes)"
scalar SubstationSidhu2007.T1.breaker[1].encap 	pauseSent:count 	0
attr title  "pause sent, count"
scalar SubstationSidhu2007.T1.breaker[1].encap 	pauseSent:sum 	0
attr title  "pause sent, sum"
scalar SubstationSidhu2007.T1.breaker[1].encap 	decapPk:count 	3363
attr interpolationmode  none
attr source  decapPk
attr title  "packets decapsulated, count"
scalar SubstationSidhu2007.T1.breaker[1].encap 	decapPk:sum(packetBytes) 	77112
attr interpolationmode  none
attr source  decapPk
attr title  "packets decapsulated, sum(packetBytes)"
scalar SubstationSidhu2007.T1.breaker[1].encap 	encapPk:count 	1204
attr interpolationmode  none
attr source  encapPk
attr title  "packets encapsulated, count"
scalar SubstationSidhu2007.T1.breaker[1].encap 	encapPk:sum(packetBytes) 	1036608
attr interpolationmode  none
attr source  encapPk
attr title  "packets encapsulated, sum(packetBytes)"
scalar SubstationSidhu2007.T1.breaker[1].networkLayer.arp 	failedResolution:count 	0
attr title  "ARP failed resolutions, count"
scalar SubstationSidhu2007.T1.breaker[1].networkLayer.arp 	initiatedResolution:count 	1
attr title  "ARP initiated resolutions, count"
scalar SubstationSidhu2007.T1.breaker[1].networkLayer.arp 	sentReplies:count 	0
attr title  "ARP replies sent, count"
scalar SubstationSidhu2007.T1.breaker[1].networkLayer.arp 	sentReq:count 	3
attr title  "ARP request sent, count"
statistic SubstationSidhu2007.T1.breaker[1].iec61850trafgen 	eteTrip1A:histogram
field count 2795
field mean 4.454605677102e-05
field stddev 9.8539898272385e-06
field sum 0.124506228675
field sqrsum 5.8175620476519e-06
field min 3.0719998e-05
field max 6.6239992e-05
attr interpolationmode  none
attr source  messageAge(rcvdTrip1A)
attr title  "eteTrip1A, histogram"
attr unit  s
bin	-INF	0
bin	1.2960001e-05	0
bin	1.53280006e-05	0
bin	1.76960002e-05	0
bin	2.00639998e-05	0
bin	2.24319994e-05	0
bin	2.4799999e-05	0
bin	2.71679986e-05	0
bin	2.95359982e-05	545
bin	3.19039978e-05	0
bin	3.42719974e-05	0
bin	3.6639997e-05	559
bin	3.90079966e-05	0
bin	4.13759962e-05	0
bin	4.37439958e-05	559
bin	4.61119954e-05	0
bin	4.8479995e-05	0
bin	5.08479946e-05	559
bin	5.32159942e-05	0
bin	5.55839938e-05	0
bin	5.79519934e-05	559
bin	6.0319993e-05	0
bin	6.26879926e-05	0
bin	6.50559922e-05	14
bin	6.74239918e-05	0
bin	6.97919914e-05	0
bin	7.2159991e-05	0
bin	7.45279906e-05	0
bin	7.68959902e-05	0
bin	7.92639898e-05	0
bin	8.16319894e-05	0
bin	8.3999989e-05	0
scalar SubstationSidhu2007.T1.breaker[1].iec61850trafgen 	sentPk:count 	0
attr interpolationmode  none
attr source  sentPk
attr title  "packets sent, count"
scalar SubstationSidhu2007.T1.breaker[1].iec61850trafgen 	sentPk:sum(packetBytes) 	0
attr interpolationmode  none
attr source  sentPk
attr title  "packets sent, sum(packetBytes)"
scalar SubstationSidhu2007.T1.breaker[1].iec61850trafgen 	rcvdPk:count 	2795
attr interpolationmode  none
attr source  rcvdPk
attr title  "packets received, count"
scalar SubstationSidhu2007.T1.breaker[1].iec61850trafgen 	rcvdPk:sum(packetBytes) 	64844
attr interpolationmode  none
attr source  rcvdPk
attr title  "packets received, sum(packetBytes)"
statistic SubstationSidhu2007.T1.breaker[1].iec61850trafgen 	endToEndDelay:histogram
field count 2795
field mean 4.454605677102e-05
field stddev 9.8539898272385e-06
field sum 0.124506228675
field sqrsum 5.8175620476519e-06
field min 3.0719998e-05
field max 6.6239992e-05
attr interpolationmode  none
attr source  messageAge(rcvdPk)
attr title  "end-to-end delay, histogram"
attr unit  s
bin	-INF	0
bin	1.2960001e-05	0
bin	1.53280006e-05	0
bin	1.76960002e-05	0
bin	2.00639998e-05	0
bin	2.24319994e-05	0
bin	2.4799999e-05	0
bin	2.71679986e-05	0
bin	2.95359982e-05	545
bin	3.19039978e-05	0
bin	3.42719974e-05	0
bin	3.6639997e-05	559
bin	3.90079966e-05	0
bin	4.13759962e-05	0
bin	4.37439958e-05	559
bin	4.61119954e-05	0
bin	4.8479995e-05	0
bin	5.08479946e-05	559
bin	5.32159942e-05	0
bin	5.55839938e-05	0
bin	5.79519934e-05	559
bin	6.0319993e-05	0
bin	6.26879926e-05	0
bin	6.50559922e-05	14
bin	6.74239918e-05	0
bin	6.97919914e-05	0
bin	7.2159991e-05	0
bin	7.45279906e-05	0
bin	7.68959902e-05	0
bin	7.92639898e-05	0
bin	8.16319894e-05	0
bin	8.3999989e-05	0
scalar SubstationSidhu2007.T1.breaker[1].mms 	numActiveSessions:max 	521
attr interpolationmode  sample-hold
attr source  sum(connect)
attr title  "number of active sessions, max"
scalar SubstationSidhu2007.T1.breaker[1].mms 	numActiveSessions:timeavg 	235.20328482717
attr interpolationmode  sample-hold
attr source  sum(connect)
attr title  "number of active sessions, timeavg"
scalar SubstationSidhu2007.T1.breaker[1].mms 	numSessions:last 	521
attr source  sum(connect+1)/2
attr title  "total number of sessions, last"
scalar SubstationSidhu2007.T1.breaker[1].mms 	sentPk:count 	0
attr interpolationmode  none
attr source  sentPk
attr title  "packets sent, count"
scalar SubstationSidhu2007.T1.breaker[1].mms 	sentPk:sum(packetBytes) 	0
attr interpolationmode  none
attr source  sentPk
attr title  "packets sent, sum(packetBytes)"
scalar SubstationSidhu2007.T1.breaker[1].mms 	rcvdPk:count 	0
attr interpolationmode  none
attr source  rcvdPk
attr title  "packets received, count"
scalar SubstationSidhu2007.T1.breaker[1].mms 	rcvdPk:sum(packetBytes) 	0
attr interpolationmode  none
attr source  rcvdPk
attr title  "packets received, sum(packetBytes)"
statistic SubstationSidhu2007.T1.breaker[1].mms 	endToEndDelay:histogram
field count 0
field mean 0
field stddev -nan
field sum 0
field sqrsum 0
field min 0
field max 0
attr interpolationmode  none
attr source  messageAge(rcvdPk)
attr title  "end-to-end delay, histogram"
attr unit  s
bin	-INF	0
bin	-0.5	0
bin	-0.46666666666667	0
bin	-0.43333333333333	0
bin	-0.4	0
bin	-0.36666666666667	0
bin	-0.33333333333333	0
bin	-0.3	0
bin	-0.26666666666667	0
bin	-0.23333333333333	0
bin	-0.2	0
bin	-0.16666666666667	0
bin	-0.13333333333333	0
bin	-0.1	0
bin	-0.066666666666667	0
bin	-0.033333333333333	0
bin	-6.9388939039072e-18	0
bin	0.033333333333333	0
bin	0.066666666666667	0
bin	0.1	0
bin	0.13333333333333	0
bin	0.16666666666667	0
bin	0.2	0
bin	0.23333333333333	0
bin	0.26666666666667	0
bin	0.3	0
bin	0.33333333333333	0
bin	0.36666666666667	0
bin	0.4	0
bin	0.43333333333333	0
bin	0.46666666666667	0
bin	0.5	0
scalar SubstationSidhu2007.T1.breaker[1].IPburst 	sentPk:count 	20
attr interpolationmode  none
attr source  sentPk
attr title  "packets sent, count"
scalar SubstationSidhu2007.T1.breaker[1].IPburst 	sentPk:sum(packetBytes) 	1000000
attr interpolationmode  none
attr source  sentPk
attr title  "packets sent, sum(packetBytes)"
scalar SubstationSidhu2007.T1.breaker[1].IPburst 	rcvdPk:count 	19
attr interpolationmode  none
attr source  rcvdPk
attr title  "packets received, count"
scalar SubstationSidhu2007.T1.breaker[1].IPburst 	rcvdPk:sum(packetBytes) 	684
attr interpolationmode  none
attr source  rcvdPk
attr title  "packets received, sum(packetBytes)"
statistic SubstationSidhu2007.T1.breaker[1].IPburst 	endToEndDelay:histogram
field count 19
field mean 2.0639999e-05
field stddev 3.4563520229757e-13
field sum 0.000392159981
field sqrsum 8.09418161568e-09
field min 2.0639999e-05
field max 2.0639999e-05
attr interpolationmode  none
attr source  messageAge(rcvdPk)
attr title  "end-to-end delay, histogram"
attr unit  s
bin	-INF	0
bin	-0.499979360001	0
bin	-0.46664602666767	0
bin	-0.43331269333433	0
bin	-0.399979360001	0
bin	-0.36664602666767	0
bin	-0.33331269333433	0
bin	-0.299979360001	0
bin	-0.26664602666767	0
bin	-0.23331269333433	0
bin	-0.199979360001	0
bin	-0.16664602666767	0
bin	-0.13331269333433	0
bin	-0.099979360001	0
bin	-0.066646026667667	0
bin	-0.033312693334333	0
bin	2.0639998999976e-05	19
bin	0.033353973332333	0
bin	0.066687306665667	0
bin	0.100020639999	0
bin	0.13335397333233	0
bin	0.16668730666567	0
bin	0.200020639999	0
bin	0.23335397333233	0
bin	0.26668730666567	0
bin	0.300020639999	0
bin	0.33335397333233	0
bin	0.36668730666567	0
bin	0.400020639999	0
bin	0.43335397333233	0
bin	0.46668730666567	0
bin	0.500020639999	0
scalar SubstationSidhu2007.T1.control[0].queue.pauseQueue 	queueLength:max 	0
attr interpolationmode  sample-hold
attr title  "queue length, max"
scalar SubstationSidhu2007.T1.control[0].queue.pauseQueue 	queueLength:timeavg 	0
attr interpolationmode  sample-hold
attr title  "queue length, timeavg"
statistic SubstationSidhu2007.T1.control[0].queue.pauseQueue 	queueingTime:histogram
field count 0
field mean 0
field stddev -nan
field sum 0
field sqrsum 0
field min 0
field max 0
attr interpolationmode  none
attr title  "queueing time, histogram"
bin	-INF	0
bin	-0.5	0
bin	-0.46666666666667	0
bin	-0.43333333333333	0
bin	-0.4	0
bin	-0.36666666666667	0
bin	-0.33333333333333	0
bin	-0.3	0
bin	-0.26666666666667	0
bin	-0.23333333333333	0
bin	-0.2	0
bin	-0.16666666666667	0
bin	-0.13333333333333	0
bin	-0.1	0
bin	-0.066666666666667	0
bin	-0.033333333333333	0
bin	-6.9388939039072e-18	0
bin	0.033333333333333	0
bin	0.066666666666667	0
bin	0.1	0
bin	0.13333333333333	0
bin	0.16666666666667	0
bin	0.2	0
bin	0.23333333333333	0
bin	0.26666666666667	0
bin	0.3	0
bin	0.33333333333333	0
bin	0.36666666666667	0
bin	0.4	0
bin	0.43333333333333	0
bin	0.46666666666667	0
bin	0.5	0
scalar SubstationSidhu2007.T1.control[0].queue.pauseQueue 	dropPk:count 	0
attr interpolationmode  none
attr source  dropPkByQueue
attr title  "dropped packets, count"
scalar SubstationSidhu2007.T1.control[0].queue.pauseQueue 	dropPk:sum(packetBytes) 	0
attr interpolationmode  none
attr source  dropPkByQueue
attr title  "dropped packets, sum(packetBytes)"
scalar SubstationSidhu2007.T1.control[0].queue.pauseQueue 	rcvdPk:count 	0
attr interpolationmode  none
attr title  "received packets, count"
scalar SubstationSidhu2007.T1.control[0].queue.pauseQueue 	rcvdPk:sum(packetBytes) 	0
attr interpolationmode  none
attr title  "received packets, sum(packetBytes)"
scalar SubstationSidhu2007.T1.control[0].queue.dataQueue 	queueLength:max 	100
attr interpolationmode  sample-hold
attr title  "queue length, max"
scalar SubstationSidhu2007.T1.control[0].queue.dataQueue 	queueLength:timeavg 	0.057722123915358
attr interpolationmode  sample-hold
attr title  "queue length, timeavg"
statistic SubstationSidhu2007.T1.control[0].queue.dataQueue 	queueingTime:histogram
field count 1802
field mean 0.00099218618502386
field stddev 0.0018873070965974
field sum 1.787919505413
field sqrsum 0.0081889814996427
field min 0
field max 0.0121364799
attr interpolationmode  none
attr title  "queueing time, histogram"
bin	-INF	0
bin	-0.0033126399725	0
bin	-0.0028709546428333	0
bin	-0.0024292693131667	0
bin	-0.0019875839835	0
bin	-0.0015458986538333	0
bin	-0.0011042133241667	0
bin	-0.0006625279945	0
bin	-0.00022084266483333	1159
bin	0.00022084266483333	72
bin	0.0006625279945	54
bin	0.0011042133241667	72
bin	0.0015458986538333	72
bin	0.0019875839835	54
bin	0.0024292693131667	72
bin	0.0028709546428333	54
bin	0.0033126399725	72
bin	0.0037543253021667	56
bin	0.0041960106318333	3
bin	0.0046376959615	4
bin	0.0050793812911667	4
bin	0.0055210666208333	3
bin	0.0059627519505	4
bin	0.0064044372801667	3
bin	0.0068461226098333	4
bin	0.0072878079395	3
bin	0.0077294932691667	4
bin	0.0081711785988333	4
bin	0.0086128639285	3
bin	0.0090545492581667	4
bin	0.0094962345878333	4
bin	0.0099379199175	18
scalar SubstationSidhu2007.T1.control[0].queue.dataQueue 	dropPk:count 	2
attr interpolationmode  none
attr source  dropPkByQueue
attr title  "dropped packets, count"
scalar SubstationSidhu2007.T1.control[0].queue.dataQueue 	dropPk:sum(packetBytes) 	2716
attr interpolationmode  none
attr source  dropPkByQueue
attr title  "dropped packets, sum(packetBytes)"
scalar SubstationSidhu2007.T1.control[0].queue.dataQueue 	rcvdPk:count 	1804
attr interpolationmode  none
attr title  "received packets, count"
scalar SubstationSidhu2007.T1.control[0].queue.dataQueue 	rcvdPk:sum(packetBytes) 	1097776
attr interpolationmode  none
attr title  "received packets, sum(packetBytes)"
scalar SubstationSidhu2007.T1.control[0].mac 	"simulated time" 	30.974596638799
scalar SubstationSidhu2007.T1.control[0].mac 	full-duplex 	1
scalar SubstationSidhu2007.T1.control[0].mac 	"frames/sec sent" 	58.176705931428
scalar SubstationSidhu2007.T1.control[0].mac 	"frames/sec rcvd" 	90.654933549084
scalar SubstationSidhu2007.T1.control[0].mac 	"bits/sec sent" 	282827.8961033
scalar SubstationSidhu2007.T1.control[0].mac 	"bits/sec rcvd" 	47330.656702196
[...]
bin	0.16666666666667	0
bin	0.2	0
bin	0.23333333333333	0
bin	0.26666666666667	0
bin	0.3	0
bin	0.33333333333333	0
bin	0.36666666666667	0
bin	0.4	0
bin	0.43333333333333	0
bin	0.46666666666667	0
bin	0.5	0
scalar SubstationSidhu2007.server.queue.p5 	dropPk:count 	0
attr interpolationmode  none
attr source  dropPkByQueue
attr title  "dropped packets, count"
scalar SubstationSidhu2007.server.queue.p5 	dropPk:sum(packetBytes) 	0
attr interpolationmode  none
attr source  dropPkByQueue
attr title  "dropped packets, sum(packetBytes)"
scalar SubstationSidhu2007.server.queue.p5 	rcvdPk:count 	0
attr interpolationmode  none
attr title  "received packets, count"
scalar SubstationSidhu2007.server.queue.p5 	rcvdPk:sum(packetBytes) 	0
attr interpolationmode  none
attr title  "received packets, sum(packetBytes)"
scalar SubstationSidhu2007.server.queue.p4 	queueLength:max 	0
attr interpolationmode  sample-hold
attr title  "queue length, max"
scalar SubstationSidhu2007.server.queue.p4 	queueLength:timeavg 	0
attr interpolationmode  sample-hold
attr title  "queue length, timeavg"
statistic SubstationSidhu2007.server.queue.p4 	queueingTime:histogram
field count 0
field mean 0
field stddev -nan
field sum 0
field sqrsum 0
field min 0
field max 0
attr interpolationmode  none
attr title  "queueing time, histogram"
bin	-INF	0
bin	-0.5	0
bin	-0.46666666666667	0
bin	-0.43333333333333	0
bin	-0.4	0
bin	-0.36666666666667	0
bin	-0.33333333333333	0
bin	-0.3	0
bin	-0.26666666666667	0
bin	-0.23333333333333	0
bin	-0.2	0
bin	-0.16666666666667	0
bin	-0.13333333333333	0
bin	-0.1	0
bin	-0.066666666666667	0
bin	-0.033333333333333	0
bin	-6.9388939039072e-18	0
bin	0.033333333333333	0
bin	0.066666666666667	0
bin	0.1	0
bin	0.13333333333333	0
bin	0.16666666666667	0
bin	0.2	0
bin	0.23333333333333	0
bin	0.26666666666667	0
bin	0.3	0
bin	0.33333333333333	0
bin	0.36666666666667	0
bin	0.4	0
bin	0.43333333333333	0
bin	0.46666666666667	0
bin	0.5	0
scalar SubstationSidhu2007.server.queue.p4 	dropPk:count 	0
attr interpolationmode  none
attr source  dropPkByQueue
attr title  "dropped packets, count"
scalar SubstationSidhu2007.server.queue.p4 	dropPk:sum(packetBytes) 	0
attr interpolationmode  none
attr source  dropPkByQueue
attr title  "dropped packets, sum(packetBytes)"
scalar SubstationSidhu2007.server.queue.p4 	rcvdPk:count 	0
attr interpolationmode  none
attr title  "received packets, count"
scalar SubstationSidhu2007.server.queue.p4 	rcvdPk:sum(packetBytes) 	0
attr interpolationmode  none
attr title  "received packets, sum(packetBytes)"
scalar SubstationSidhu2007.server.queue.p3 	queueLength:max 	0
attr interpolationmode  sample-hold
attr title  "queue length, max"
scalar SubstationSidhu2007.server.queue.p3 	queueLength:timeavg 	0
attr interpolationmode  sample-hold
attr title  "queue length, timeavg"
statistic SubstationSidhu2007.server.queue.p3 	queueingTime:histogram
field count 0
field mean 0
field stddev -nan
field sum 0
field sqrsum 0
field min 0
field max 0
attr interpolationmode  none
attr title  "queueing time, histogram"
bin	-INF	0
bin	-0.5	0
bin	-0.46666666666667	0
bin	-0.43333333333333	0
bin	-0.4	0
bin	-0.36666666666667	0
bin	-0.33333333333333	0
bin	-0.3	0
bin	-0.26666666666667	0
bin	-0.23333333333333	0
bin	-0.2	0
bin	-0.16666666666667	0
bin	-0.13333333333333	0
bin	-0.1	0
bin	-0.066666666666667	0
bin	-0.033333333333333	0
bin	-6.9388939039072e-18	0
bin	0.033333333333333	0
bin	0.066666666666667	0
bin	0.1	0
bin	0.13333333333333	0
bin	0.16666666666667	0
bin	0.2	0
bin	0.23333333333333	0
bin	0.26666666666667	0
bin	0.3	0
bin	0.33333333333333	0
bin	0.36666666666667	0
bin	0.4	0
bin	0.43333333333333	0
bin	0.46666666666667	0
bin	0.5	0
scalar SubstationSidhu2007.server.queue.p3 	dropPk:count 	0
attr interpolationmode  none
attr source  dropPkByQueue
attr title  "dropped packets, count"
scalar SubstationSidhu2007.server.queue.p3 	dropPk:sum(packetBytes) 	0
attr interpolationmode  none
attr source  dropPkByQueue
attr title  "dropped packets, sum(packetBytes)"
scalar SubstationSidhu2007.server.queue.p3 	rcvdPk:count 	0
attr interpolationmode  none
attr title  "received packets, count"
scalar SubstationSidhu2007.server.queue.p3 	rcvdPk:sum(packetBytes) 	0
attr interpolationmode  none
attr title  "received packets, sum(packetBytes)"
scalar SubstationSidhu2007.server.queue.p2 	queueLength:max 	0
attr interpolationmode  sample-hold
attr title  "queue length, max"
scalar SubstationSidhu2007.server.queue.p2 	queueLength:timeavg 	0
attr interpolationmode  sample-hold
attr title  "queue length, timeavg"
statistic SubstationSidhu2007.server.queue.p2 	queueingTime:histogram
field count 0
field mean 0
field stddev -nan
field sum 0
field sqrsum 0
field min 0
field max 0
attr interpolationmode  none
attr title  "queueing time, histogram"
bin	-INF	0
bin	-0.5	0
bin	-0.46666666666667	0
bin	-0.43333333333333	0
bin	-0.4	0
bin	-0.36666666666667	0
bin	-0.33333333333333	0
bin	-0.3	0
bin	-0.26666666666667	0
bin	-0.23333333333333	0
bin	-0.2	0
bin	-0.16666666666667	0
bin	-0.13333333333333	0
bin	-0.1	0
bin	-0.066666666666667	0
bin	-0.033333333333333	0
bin	-6.9388939039072e-18	0
bin	0.033333333333333	0
bin	0.066666666666667	0
bin	0.1	0
bin	0.13333333333333	0
bin	0.16666666666667	0
bin	0.2	0
bin	0.23333333333333	0
bin	0.26666666666667	0
bin	0.3	0
bin	0.33333333333333	0
bin	0.36666666666667	0
bin	0.4	0
bin	0.43333333333333	0
bin	0.46666666666667	0
bin	0.5	0
scalar SubstationSidhu2007.server.queue.p2 	dropPk:count 	0
attr interpolationmode  none
attr source  dropPkByQueue
attr title  "dropped packets, count"
scalar SubstationSidhu2007.server.queue.p2 	dropPk:sum(packetBytes) 	0
attr interpolationmode  none
attr source  dropPkByQueue
attr title  "dropped packets, sum(packetBytes)"
scalar SubstationSidhu2007.server.queue.p2 	rcvdPk:count 	0
attr interpolationmode  none
attr title  "received packets, count"
scalar SubstationSidhu2007.server.queue.p2 	rcvdPk:sum(packetBytes) 	0
attr interpolationmode  none
attr title  "received packets, sum(packetBytes)"
scalar SubstationSidhu2007.server.queue.p1 	queueLength:max 	1
attr interpolationmode  sample-hold
attr title  "queue length, max"
scalar SubstationSidhu2007.server.queue.p1 	queueLength:timeavg 	1.2991291047063e-05
attr interpolationmode  sample-hold
attr title  "queue length, timeavg"
statistic SubstationSidhu2007.server.queue.p1 	queueingTime:histogram
field count 15148
field mean 2.6564562978611e-08
field stddev 1.4334340171481e-07
field sum 0.0004024
field sqrsum 3.2192e-10
field min 0
field max 8e-07
attr interpolationmode  none
attr title  "queueing time, histogram"
bin	-INF	0
bin	-4e-07	0
bin	-3.4666666666667e-07	0
bin	-2.9333333333333e-07	0
bin	-2.4e-07	0
bin	-1.8666666666667e-07	0
bin	-1.3333333333333e-07	0
bin	-8e-08	0
bin	-2.6666666666667e-08	14645
bin	2.6666666666667e-08	0
bin	8e-08	0
bin	1.3333333333333e-07	0
bin	1.8666666666667e-07	0
bin	2.4e-07	0
bin	2.9333333333333e-07	0
bin	3.4666666666667e-07	0
bin	4e-07	0
bin	4.5333333333333e-07	0
bin	5.0666666666667e-07	0
bin	5.6e-07	0
bin	6.1333333333333e-07	0
bin	6.6666666666667e-07	0
bin	7.2e-07	0
bin	7.7333333333333e-07	503
bin	8.2666666666667e-07	0
bin	8.8e-07	0
bin	9.3333333333333e-07	0
bin	9.8666666666667e-07	0
bin	1.04e-06	0
bin	1.0933333333333e-06	0
bin	1.1466666666667e-06	0
bin	1.2e-06	0
scalar SubstationSidhu2007.server.queue.p1 	dropPk:count 	0
attr interpolationmode  none
attr source  dropPkByQueue
attr title  "dropped packets, count"
scalar SubstationSidhu2007.server.queue.p1 	dropPk:sum(packetBytes) 	0
attr interpolationmode  none
attr source  dropPkByQueue
attr title  "dropped packets, sum(packetBytes)"
scalar SubstationSidhu2007.server.queue.p1 	rcvdPk:count 	15148
attr interpolationmode  none
attr title  "received packets, count"
scalar SubstationSidhu2007.server.queue.p1 	rcvdPk:sum(packetBytes) 	974792
attr interpolationmode  none
attr title  "received packets, sum(packetBytes)"
scalar SubstationSidhu2007.server.queue.p0 	queueLength:max 	0
attr interpolationmode  sample-hold
attr title  "queue length, max"
scalar SubstationSidhu2007.server.queue.p0 	queueLength:timeavg 	0
attr interpolationmode  sample-hold
attr title  "queue length, timeavg"
statistic SubstationSidhu2007.server.queue.p0 	queueingTime:histogram
field count 0
field mean 0
field stddev -nan
field sum 0
field sqrsum 0
field min 0
field max 0
attr interpolationmode  none
attr title  "queueing time, histogram"
bin	-INF	0
bin	-0.5	0
bin	-0.46666666666667	0
bin	-0.43333333333333	0
bin	-0.4	0
bin	-0.36666666666667	0
bin	-0.33333333333333	0
bin	-0.3	0
bin	-0.26666666666667	0
bin	-0.23333333333333	0
bin	-0.2	0
bin	-0.16666666666667	0
bin	-0.13333333333333	0
bin	-0.1	0
bin	-0.066666666666667	0
bin	-0.033333333333333	0
bin	-6.9388939039072e-18	0
bin	0.033333333333333	0
bin	0.066666666666667	0
bin	0.1	0
bin	0.13333333333333	0
bin	0.16666666666667	0
bin	0.2	0
bin	0.23333333333333	0
bin	0.26666666666667	0
bin	0.3	0
bin	0.33333333333333	0
bin	0.36666666666667	0
bin	0.4	0
bin	0.43333333333333	0
bin	0.46666666666667	0
bin	0.5	0
scalar SubstationSidhu2007.server.queue.p0 	dropPk:count 	0
attr interpolationmode  none
attr source  dropPkByQueue
attr title  "dropped packets, count"
scalar SubstationSidhu2007.server.queue.p0 	dropPk:sum(packetBytes) 	0
attr interpolationmode  none
attr source  dropPkByQueue
attr title  "dropped packets, sum(packetBytes)"
scalar SubstationSidhu2007.server.queue.p0 	rcvdPk:count 	0
attr interpolationmode  none
attr title  "received packets, count"
scalar SubstationSidhu2007.server.queue.p0 	rcvdPk:sum(packetBytes) 	0
attr interpolationmode  none
attr title  "received packets, sum(packetBytes)"
scalar SubstationSidhu2007.server.mac 	"simulated time" 	30.974596638799
scalar SubstationSidhu2007.server.mac 	full-duplex 	1
scalar SubstationSidhu2007.server.mac 	"frames/sec sent" 	489.04591645353
scalar SubstationSidhu2007.server.mac 	"frames/sec rcvd" 	1157.9166120625
scalar SubstationSidhu2007.server.mac 	"bits/sec sent" 	251765.53841646
scalar SubstationSidhu2007.server.mac 	"bits/sec rcvd" 	7678879.3982895
scalar SubstationSidhu2007.server.mac 	"rx channel idle (%)" 	92.247013938539
scalar SubstationSidhu2007.server.mac 	"rx channel utilization (%)" 	7.7529860614615
scalar SubstationSidhu2007.server.mac 	"rx channel collision (%)" 	0
scalar SubstationSidhu2007.server.mac 	collisions 	0
scalar SubstationSidhu2007.server.mac 	backoffs 	0
scalar SubstationSidhu2007.server.mac 	backoff:count 	0
attr interpolationmode  none
attr title  "backoff, count"
scalar SubstationSidhu2007.server.mac 	collision:count 	0
attr interpolationmode  none
attr title  "collision, count"
scalar SubstationSidhu2007.server.mac 	droppedPkNotForUs:count 	0
attr interpolationmode  none
attr source  dropPkNotForUs
attr title  "packets dropped/not for us, count"
scalar SubstationSidhu2007.server.mac 	droppedPkNotForUs:sum(packetBytes) 	0
attr interpolationmode  none
attr source  dropPkNotForUs
attr title  "packets dropped/not for us, sum(packetBytes)"
scalar SubstationSidhu2007.server.mac 	droppedPkBitError:count 	0
attr interpolationmode  none
attr source  dropPkBitError
attr title  "packets dropped/bit error, count"
scalar SubstationSidhu2007.server.mac 	droppedPkBitError:sum(packetBytes) 	0
attr interpolationmode  none
attr source  dropPkBitError
attr title  "packets dropped/bit error, sum(packetBytes)"
scalar SubstationSidhu2007.server.mac 	droppedPkIfaceDown:count 	0
attr interpolationmode  none
attr source  dropPkIfaceDown
attr title  "packets dropped/interface down, count"
scalar SubstationSidhu2007.server.mac 	droppedPkIfaceDown:sum(packetBytes) 	0
attr interpolationmode  none
attr source  dropPkIfaceDown
attr title  "packets dropped/interface down, sum(packetBytes)"
scalar SubstationSidhu2007.server.mac 	rxPkFromHL:count 	15148
attr interpolationmode  none
attr source  rxPkFromHL
attr title  "packet bytes from higher layer, count"
scalar SubstationSidhu2007.server.mac 	rxPkFromHL:sum(packetBytes) 	974792
attr interpolationmode  none
attr source  rxPkFromHL
attr title  "packet bytes from higher layer, sum(packetBytes)"
scalar SubstationSidhu2007.server.mac 	rxPausePkUnits:count 	0
attr interpolationmode  none
attr title  "pause units received, count"
scalar SubstationSidhu2007.server.mac 	rxPausePkUnits:sum 	0
attr interpolationmode  none
attr title  "pause units received, sum"
scalar SubstationSidhu2007.server.mac 	txPausePkUnits:count 	0
attr interpolationmode  none
attr title  "pause units sent, count"
scalar SubstationSidhu2007.server.mac 	txPausePkUnits:sum 	0
attr interpolationmode  none
attr title  "pause units sent, sum"
scalar SubstationSidhu2007.server.mac 	passedUpPk:count 	35866
attr interpolationmode  none
attr source  packetSentToUpper
attr title  "packets passed to higher layer, count"
scalar SubstationSidhu2007.server.mac 	passedUpPk:sum(packetBytes) 	29731274
attr interpolationmode  none
attr source  packetSentToUpper
attr title  "packets passed to higher layer, sum(packetBytes)"
scalar SubstationSidhu2007.server.mac 	rxPkOk:count 	35866
attr interpolationmode  none
attr source  rxPkOk
attr title  "packets received OK, count"
scalar SubstationSidhu2007.server.mac 	rxPkOk:sum(packetBytes) 	29731274
attr interpolationmode  none
attr source  rxPkOk
attr title  "packets received OK, sum(packetBytes)"
scalar SubstationSidhu2007.server.mac 	txPk:count 	15148
attr interpolationmode  none
attr source  txPk
attr title  "packets transmitted, count"
scalar SubstationSidhu2007.server.mac 	txPk:sum(packetBytes) 	974792
attr interpolationmode  none
attr source  txPk
attr title  "packets transmitted, sum(packetBytes)"
scalar SubstationSidhu2007.server.encap 	pauseSent:count 	0
attr title  "pause sent, count"
scalar SubstationSidhu2007.server.encap 	pauseSent:sum 	0
attr title  "pause sent, sum"
scalar SubstationSidhu2007.server.encap 	decapPk:count 	35836
attr interpolationmode  none
attr source  decapPk
attr title  "packets decapsulated, count"
scalar SubstationSidhu2007.server.encap 	decapPk:sum(packetBytes) 	29004316
attr interpolationmode  none
attr source  decapPk
attr title  "packets decapsulated, sum(packetBytes)"
scalar SubstationSidhu2007.server.encap 	encapPk:count 	15148
attr interpolationmode  none
attr source  encapPk
attr title  "packets encapsulated, count"
scalar SubstationSidhu2007.server.encap 	encapPk:sum(packetBytes) 	322336
attr interpolationmode  none
attr source  encapPk
attr title  "packets encapsulated, sum(packetBytes)"
scalar SubstationSidhu2007.server.networkLayer.arp 	failedResolution:count 	0
attr title  "ARP failed resolutions, count"
scalar SubstationSidhu2007.server.networkLayer.arp 	initiatedResolution:count 	0
attr title  "ARP initiated resolutions, count"
scalar SubstationSidhu2007.server.networkLayer.arp 	sentReplies:count 	0
attr title  "ARP replies sent, count"
scalar SubstationSidhu2007.server.networkLayer.arp 	sentReq:count 	0
attr title  "ARP request sent, count"
statistic SubstationSidhu2007.server.gooseApp 	eteSV:histogram
field count 0
field mean 0
field stddev -nan
field sum 0
field sqrsum 0
field min 0
field max 0
attr interpolationmode  none
attr source  messageAge(rcvdSV)
attr title  "SampledValues, histogram"
attr unit  s
bin	-INF	0
bin	-0.5	0
bin	-0.46666666666667	0
bin	-0.43333333333333	0
bin	-0.4	0
bin	-0.36666666666667	0
bin	-0.33333333333333	0
bin	-0.3	0
bin	-0.26666666666667	0
bin	-0.23333333333333	0
bin	-0.2	0
bin	-0.16666666666667	0
bin	-0.13333333333333	0
bin	-0.1	0
bin	-0.066666666666667	0
bin	-0.033333333333333	0
bin	-6.9388939039072e-18	0
bin	0.033333333333333	0
bin	0.066666666666667	0
bin	0.1	0
bin	0.13333333333333	0
bin	0.16666666666667	0
bin	0.2	0
bin	0.23333333333333	0
bin	0.26666666666667	0
bin	0.3	0
bin	0.33333333333333	0
bin	0.36666666666667	0
bin	0.4	0
bin	0.43333333333333	0
bin	0.46666666666667	0
bin	0.5	0
statistic SubstationSidhu2007.server.gooseApp 	eteGoose:histogram
field count 0
field mean 0
field stddev -nan
field sum 0
field sqrsum 0
field min 0
field max 0
attr interpolationmode  none
attr source  messageAge(rcvdGoose)
attr title  "Goose, histogram"
attr unit  s
bin	-INF	0
bin	-0.5	0
bin	-0.46666666666667	0
bin	-0.43333333333333	0
bin	-0.4	0
bin	-0.36666666666667	0
bin	-0.33333333333333	0
bin	-0.3	0
bin	-0.26666666666667	0
bin	-0.23333333333333	0
bin	-0.2	0
bin	-0.16666666666667	0
bin	-0.13333333333333	0
bin	-0.1	0
bin	-0.066666666666667	0
bin	-0.033333333333333	0
bin	-6.9388939039072e-18	0
bin	0.033333333333333	0
bin	0.066666666666667	0
bin	0.1	0
bin	0.13333333333333	0
bin	0.16666666666667	0
bin	0.2	0
bin	0.23333333333333	0
bin	0.26666666666667	0
bin	0.3	0
bin	0.33333333333333	0
bin	0.36666666666667	0
bin	0.4	0
bin	0.43333333333333	0
bin	0.46666666666667	0
bin	0.5	0
scalar SubstationSidhu2007.server.gooseApp 	sentPk:count 	0
attr interpolationmode  none
attr source  sentPk
attr title  "packets sent, count"
scalar SubstationSidhu2007.server.gooseApp 	sentPk:sum(packetBytes) 	0
attr interpolationmode  none
attr source  sentPk
attr title  "packets sent, sum(packetBytes)"
scalar SubstationSidhu2007.server.gooseApp 	rcvdPk:count 	2236
attr interpolationmode  none
attr source  rcvdPk
attr title  "packets received, count"
scalar SubstationSidhu2007.server.gooseApp 	rcvdPk:sum(packetBytes) 	55900
attr interpolationmode  none
attr source  rcvdPk
attr title  "packets received, sum(packetBytes)"
statistic SubstationSidhu2007.server.gooseApp 	endToEndDelay:histogram
field count 2236
field mean 0.0043858167235285
field stddev 0.022577173048753
field sum 9.8066861938098
field sqrsum 1.1822540686331
field min 1.728e-05
field max 0.293698397145
attr interpolationmode  none
attr source  messageAge(rcvdPk)
attr title  "end-to-end delay, histogram"
attr unit  s
bin	-INF	0
bin	-0.1468232785725	0
bin	-0.1272445374295	0
bin	-0.1076657962865	0
bin	-0.0880870551435	0
bin	-0.0685083140005	0
bin	-0.0489295728575	0
bin	-0.0293508317145	0
bin	-0.0097720905715	2076
bin	0.0098066505715	68
bin	0.0293853917145	4
bin	0.0489641328575	68
bin	0.0685428740005	0
bin	0.0881216151435	4
bin	0.1077003562865	0
bin	0.1272790974295	4
bin	0.1468578385725	0
bin	0.1664365797155	0
bin	0.1860153208585	4
bin	0.2055940620015	0
bin	0.2251728031445	4
bin	0.2447515442875	0
bin	0.2643302854305	0
bin	0.2839090265735	4
bin	0.3034877677165	0
bin	0.3230665088595	0
bin	0.3426452500025	0
bin	0.3622239911455	0
bin	0.3818027322885	0
bin	0.4013814734315	0
bin	0.4209602145745	0
bin	0.4405389557175	0
scalar SubstationSidhu2007.server.mmsApp 	bytesRcvd 	0
scalar SubstationSidhu2007.server.mmsApp 	bytesSent 	0
scalar SubstationSidhu2007.server.mmsApp 	sentPk:count 	0
attr interpolationmode  none
attr source  sentPk
attr title  "packets sent, count"
scalar SubstationSidhu2007.server.mmsApp 	sentPk:sum(packetBytes) 	0
attr interpolationmode  none
attr source  sentPk
attr title  "packets sent, sum(packetBytes)"
scalar SubstationSidhu2007.server.mmsApp 	rcvdPk:count 	0
attr interpolationmode  none
attr source  rcvdPk
attr title  "packets received, count"
scalar SubstationSidhu2007.server.mmsApp 	rcvdPk:sum(packetBytes) 	0
attr interpolationmode  none
attr source  rcvdPk
attr title  "packets received, sum(packetBytes)"
statistic SubstationSidhu2007.server.mmsApp 	endToEndDelay:histogram
field count 0
field mean 0
field stddev -nan
field sum 0
field sqrsum 0
field min 0
field max 0
attr interpolationmode  none
attr source  messageAge(rcvdPk)
attr title  "end-to-end delay, histogram"
attr unit  s
bin	-INF	0
bin	-0.5	0
bin	-0.46666666666667	0
bin	-0.43333333333333	0
bin	-0.4	0
bin	-0.36666666666667	0
bin	-0.33333333333333	0
bin	-0.3	0
bin	-0.26666666666667	0
bin	-0.23333333333333	0
bin	-0.2	0
bin	-0.16666666666667	0
bin	-0.13333333333333	0
bin	-0.1	0
bin	-0.066666666666667	0
bin	-0.033333333333333	0
bin	-6.9388939039072e-18	0
bin	0.033333333333333	0
bin	0.066666666666667	0
bin	0.1	0
bin	0.13333333333333	0
bin	0.16666666666667	0
bin	0.2	0
bin	0.23333333333333	0
bin	0.26666666666667	0
bin	0.3	0
bin	0.33333333333333	0
bin	0.36666666666667	0
bin	0.4	0
bin	0.43333333333333	0
bin	0.46666666666667	0
bin	0.5	0
