version 2
run no8021Q-0-20130917-13:31:06-11749
attr configname no8021Q
attr datetime 20130917-13:31:06
attr experiment no8021Q
attr inifile omnetpp.ini
attr iterationvars ""
attr iterationvars2 $repetition=0
attr measurement ""
attr network SubstationSidhu2007
attr processid 11749
attr repetition 0
attr replication #0
attr resultdir results
attr runnumber 0
attr seedset 0

scalar SubstationSidhu2007.stationSwitch.eth[0] 	"simulated time" 	0
scalar SubstationSidhu2007.stationSwitch.eth[0] 	full-duplex 	1
scalar SubstationSidhu2007.stationSwitch.eth[0] 	"rx channel idle (%)" 	-nan
scalar SubstationSidhu2007.stationSwitch.eth[0] 	"rx channel utilization (%)" 	-nan
scalar SubstationSidhu2007.stationSwitch.eth[0] 	"rx channel collision (%)" 	-nan
scalar SubstationSidhu2007.stationSwitch.eth[0] 	collisions 	0
scalar SubstationSidhu2007.stationSwitch.eth[0] 	backoffs 	0
scalar SubstationSidhu2007.stationSwitch.eth[0] 	backoff:count 	0
attr interpolationmode  none
attr title  "backoff, count"
scalar SubstationSidhu2007.stationSwitch.eth[0] 	collision:count 	0
attr interpolationmode  none
attr title  "collision, count"
scalar SubstationSidhu2007.stationSwitch.eth[0] 	droppedPkNotForUs:count 	0
attr interpolationmode  none
attr source  dropPkNotForUs
attr title  "packets dropped/not for us, count"
scalar SubstationSidhu2007.stationSwitch.eth[0] 	droppedPkNotForUs:sum(packetBytes) 	0
attr interpolationmode  none
attr source  dropPkNotForUs
attr title  "packets dropped/not for us, sum(packetBytes)"
scalar SubstationSidhu2007.stationSwitch.eth[0] 	droppedPkBitError:count 	0
attr interpolationmode  none
attr source  dropPkBitError
attr title  "packets dropped/bit error, count"
scalar SubstationSidhu2007.stationSwitch.eth[0] 	droppedPkBitError:sum(packetBytes) 	0
attr interpolationmode  none
attr source  dropPkBitError
attr title  "packets dropped/bit error, sum(packetBytes)"
scalar SubstationSidhu2007.stationSwitch.eth[0] 	droppedPkIfaceDown:count 	0
attr interpolationmode  none
attr source  dropPkIfaceDown
attr title  "packets dropped/interface down, count"
scalar SubstationSidhu2007.stationSwitch.eth[0] 	droppedPkIfaceDown:sum(packetBytes) 	0
attr interpolationmode  none
attr source  dropPkIfaceDown
attr title  "packets dropped/interface down, sum(packetBytes)"
scalar SubstationSidhu2007.stationSwitch.eth[0] 	rxPkFromHL:count 	0
attr interpolationmode  none
attr source  rxPkFromHL
attr title  "packet bytes from higher layer, count"
scalar SubstationSidhu2007.stationSwitch.eth[0] 	rxPkFromHL:sum(packetBytes) 	0
attr interpolationmode  none
attr source  rxPkFromHL
attr title  "packet bytes from higher layer, sum(packetBytes)"
scalar SubstationSidhu2007.stationSwitch.eth[0] 	rxPausePkUnits:count 	0
attr interpolationmode  none
attr title  "pause units received, count"
scalar SubstationSidhu2007.stationSwitch.eth[0] 	rxPausePkUnits:sum 	0
attr interpolationmode  none
attr title  "pause units received, sum"
scalar SubstationSidhu2007.stationSwitch.eth[0] 	txPausePkUnits:count 	0
attr interpolationmode  none
attr title  "pause units sent, count"
scalar SubstationSidhu2007.stationSwitch.eth[0] 	txPausePkUnits:sum 	0
attr interpolationmode  none
attr title  "pause units sent, sum"
scalar SubstationSidhu2007.stationSwitch.eth[0] 	passedUpPk:count 	0
attr interpolationmode  none
attr source  packetSentToUpper
attr title  "packets passed to higher layer, count"
scalar SubstationSidhu2007.stationSwitch.eth[0] 	passedUpPk:sum(packetBytes) 	0
attr interpolationmode  none
attr source  packetSentToUpper
attr title  "packets passed to higher layer, sum(packetBytes)"
scalar SubstationSidhu2007.stationSwitch.eth[0] 	rxPkOk:count 	0
attr interpolationmode  none
attr source  rxPkOk
attr title  "packets received OK, count"
scalar SubstationSidhu2007.stationSwitch.eth[0] 	rxPkOk:sum(packetBytes) 	0
attr interpolationmode  none
attr source  rxPkOk
attr title  "packets received OK, sum(packetBytes)"
scalar SubstationSidhu2007.stationSwitch.eth[0] 	txPk:count 	0
attr interpolationmode  none
attr source  txPk
attr title  "packets transmitted, count"
scalar SubstationSidhu2007.stationSwitch.eth[0] 	txPk:sum(packetBytes) 	0
attr interpolationmode  none
attr source  txPk
attr title  "packets transmitted, sum(packetBytes)"
scalar SubstationSidhu2007.stationSwitch.eth[1] 	"simulated time" 	0
scalar SubstationSidhu2007.stationSwitch.eth[1] 	full-duplex 	1
scalar SubstationSidhu2007.stationSwitch.eth[1] 	"rx channel idle (%)" 	-nan
scalar SubstationSidhu2007.stationSwitch.eth[1] 	"rx channel utilization (%)" 	-nan
scalar SubstationSidhu2007.stationSwitch.eth[1] 	"rx channel collision (%)" 	-nan
scalar SubstationSidhu2007.stationSwitch.eth[1] 	collisions 	0
scalar SubstationSidhu2007.stationSwitch.eth[1] 	backoffs 	0
scalar SubstationSidhu2007.stationSwitch.eth[1] 	backoff:count 	0
attr interpolationmode  none
attr title  "backoff, count"
scalar SubstationSidhu2007.stationSwitch.eth[1] 	collision:count 	0
attr interpolationmode  none
attr title  "collision, count"
scalar SubstationSidhu2007.stationSwitch.eth[1] 	droppedPkNotForUs:count 	0
attr interpolationmode  none
attr source  dropPkNotForUs
attr title  "packets dropped/not for us, count"
scalar SubstationSidhu2007.stationSwitch.eth[1] 	droppedPkNotForUs:sum(packetBytes) 	0
attr interpolationmode  none
attr source  dropPkNotForUs
attr title  "packets dropped/not for us, sum(packetBytes)"
scalar SubstationSidhu2007.stationSwitch.eth[1] 	droppedPkBitError:count 	0
attr interpolationmode  none
attr source  dropPkBitError
attr title  "packets dropped/bit error, count"
scalar SubstationSidhu2007.stationSwitch.eth[1] 	droppedPkBitError:sum(packetBytes) 	0
attr interpolationmode  none
attr source  dropPkBitError
attr title  "packets dropped/bit error, sum(packetBytes)"
scalar SubstationSidhu2007.stationSwitch.eth[1] 	droppedPkIfaceDown:count 	0
attr interpolationmode  none
attr source  dropPkIfaceDown
attr title  "packets dropped/interface down, count"
scalar SubstationSidhu2007.stationSwitch.eth[1] 	droppedPkIfaceDown:sum(packetBytes) 	0
attr interpolationmode  none
attr source  dropPkIfaceDown
attr title  "packets dropped/interface down, sum(packetBytes)"
scalar SubstationSidhu2007.stationSwitch.eth[1] 	rxPkFromHL:count 	0
attr interpolationmode  none
attr source  rxPkFromHL
attr title  "packet bytes from higher layer, count"
scalar SubstationSidhu2007.stationSwitch.eth[1] 	rxPkFromHL:sum(packetBytes) 	0
attr interpolationmode  none
attr source  rxPkFromHL
attr title  "packet bytes from higher layer, sum(packetBytes)"
scalar SubstationSidhu2007.stationSwitch.eth[1] 	rxPausePkUnits:count 	0
attr interpolationmode  none
attr title  "pause units received, count"
scalar SubstationSidhu2007.stationSwitch.eth[1] 	rxPausePkUnits:sum 	0
attr interpolationmode  none
attr title  "pause units received, sum"
scalar SubstationSidhu2007.stationSwitch.eth[1] 	txPausePkUnits:count 	0
attr interpolationmode  none
attr title  "pause units sent, count"
scalar SubstationSidhu2007.stationSwitch.eth[1] 	txPausePkUnits:sum 	0
attr interpolationmode  none
attr title  "pause units sent, sum"
scalar SubstationSidhu2007.stationSwitch.eth[1] 	passedUpPk:count 	0
attr interpolationmode  none
attr source  packetSentToUpper
attr title  "packets passed to higher layer, count"
scalar SubstationSidhu2007.stationSwitch.eth[1] 	passedUpPk:sum(packetBytes) 	0
attr interpolationmode  none
attr source  packetSentToUpper
attr title  "packets passed to higher layer, sum(packetBytes)"
scalar SubstationSidhu2007.stationSwitch.eth[1] 	rxPkOk:count 	0
attr interpolationmode  none
attr source  rxPkOk
attr title  "packets received OK, count"
scalar SubstationSidhu2007.stationSwitch.eth[1] 	rxPkOk:sum(packetBytes) 	0
attr interpolationmode  none
attr source  rxPkOk
attr title  "packets received OK, sum(packetBytes)"
scalar SubstationSidhu2007.stationSwitch.eth[1] 	txPk:count 	0
attr interpolationmode  none
attr source  txPk
attr title  "packets transmitted, count"
scalar SubstationSidhu2007.stationSwitch.eth[1] 	txPk:sum(packetBytes) 	0
attr interpolationmode  none
attr source  txPk
attr title  "packets transmitted, sum(packetBytes)"
scalar SubstationSidhu2007.stationSwitch.eth[2] 	"simulated time" 	0
scalar SubstationSidhu2007.stationSwitch.eth[2] 	full-duplex 	1
scalar SubstationSidhu2007.stationSwitch.eth[2] 	"rx channel idle (%)" 	-nan
scalar SubstationSidhu2007.stationSwitch.eth[2] 	"rx channel utilization (%)" 	-nan
scalar SubstationSidhu2007.stationSwitch.eth[2] 	"rx channel collision (%)" 	-nan
scalar SubstationSidhu2007.stationSwitch.eth[2] 	collisions 	0
scalar SubstationSidhu2007.stationSwitch.eth[2] 	backoffs 	0
scalar SubstationSidhu2007.stationSwitch.eth[2] 	backoff:count 	0
attr interpolationmode  none
attr title  "backoff, count"
scalar SubstationSidhu2007.stationSwitch.eth[2] 	collision:count 	0
attr interpolationmode  none
attr title  "collision, count"
scalar SubstationSidhu2007.stationSwitch.eth[2] 	droppedPkNotForUs:count 	0
attr interpolationmode  none
attr source  dropPkNotForUs
attr title  "packets dropped/not for us, count"
scalar SubstationSidhu2007.stationSwitch.eth[2] 	droppedPkNotForUs:sum(packetBytes) 	0
attr interpolationmode  none
attr source  dropPkNotForUs
attr title  "packets dropped/not for us, sum(packetBytes)"
scalar SubstationSidhu2007.stationSwitch.eth[2] 	droppedPkBitError:count 	0
attr interpolationmode  none
attr source  dropPkBitError
attr title  "packets dropped/bit error, count"
scalar SubstationSidhu2007.stationSwitch.eth[2] 	droppedPkBitError:sum(packetBytes) 	0
attr interpolationmode  none
attr source  dropPkBitError
attr title  "packets dropped/bit error, sum(packetBytes)"
scalar SubstationSidhu2007.stationSwitch.eth[2] 	droppedPkIfaceDown:count 	0
attr interpolationmode  none
attr source  dropPkIfaceDown
attr title  "packets dropped/interface down, count"
scalar SubstationSidhu2007.stationSwitch.eth[2] 	droppedPkIfaceDown:sum(packetBytes) 	0
attr interpolationmode  none
attr source  dropPkIfaceDown
attr title  "packets dropped/interface down, sum(packetBytes)"
scalar SubstationSidhu2007.stationSwitch.eth[2] 	rxPkFromHL:count 	0
attr interpolationmode  none
attr source  rxPkFromHL
attr title  "packet bytes from higher layer, count"
scalar SubstationSidhu2007.stationSwitch.eth[2] 	rxPkFromHL:sum(packetBytes) 	0
attr interpolationmode  none
attr source  rxPkFromHL
attr title  "packet bytes from higher layer, sum(packetBytes)"
scalar SubstationSidhu2007.stationSwitch.eth[2] 	rxPausePkUnits:count 	0
attr interpolationmode  none
attr title  "pause units received, count"
scalar SubstationSidhu2007.stationSwitch.eth[2] 	rxPausePkUnits:sum 	0
attr interpolationmode  none
attr title  "pause units received, sum"
scalar SubstationSidhu2007.stationSwitch.eth[2] 	txPausePkUnits:count 	0
attr interpolationmode  none
attr title  "pause units sent, count"
scalar SubstationSidhu2007.stationSwitch.eth[2] 	txPausePkUnits:sum 	0
attr interpolationmode  none
attr title  "pause units sent, sum"
scalar SubstationSidhu2007.stationSwitch.eth[2] 	passedUpPk:count 	0
attr interpolationmode  none
attr source  packetSentToUpper
attr title  "packets passed to higher layer, count"
scalar SubstationSidhu2007.stationSwitch.eth[2] 	passedUpPk:sum(packetBytes) 	0
attr interpolationmode  none
attr source  packetSentToUpper
attr title  "packets passed to higher layer, sum(packetBytes)"
scalar SubstationSidhu2007.stationSwitch.eth[2] 	rxPkOk:count 	0
attr interpolationmode  none
attr source  rxPkOk
attr title  "packets received OK, count"
scalar SubstationSidhu2007.stationSwitch.eth[2] 	rxPkOk:sum(packetBytes) 	0
attr interpolationmode  none
attr source  rxPkOk
attr title  "packets received OK, sum(packetBytes)"
scalar SubstationSidhu2007.stationSwitch.eth[2] 	txPk:count 	0
attr interpolationmode  none
attr source  txPk
attr title  "packets transmitted, count"
scalar SubstationSidhu2007.stationSwitch.eth[2] 	txPk:sum(packetBytes) 	0
attr interpolationmode  none
attr source  txPk
attr title  "packets transmitted, sum(packetBytes)"
scalar SubstationSidhu2007.stationSwitch.eth[3] 	"simulated time" 	0
scalar SubstationSidhu2007.stationSwitch.eth[3] 	full-duplex 	1
scalar SubstationSidhu2007.stationSwitch.eth[3] 	"rx channel idle (%)" 	-nan
scalar SubstationSidhu2007.stationSwitch.eth[3] 	"rx channel utilization (%)" 	-nan
scalar SubstationSidhu2007.stationSwitch.eth[3] 	"rx channel collision (%)" 	-nan
scalar SubstationSidhu2007.stationSwitch.eth[3] 	collisions 	0
scalar SubstationSidhu2007.stationSwitch.eth[3] 	backoffs 	0
scalar SubstationSidhu2007.stationSwitch.eth[3] 	backoff:count 	0
attr interpolationmode  none
attr title  "backoff, count"
scalar SubstationSidhu2007.stationSwitch.eth[3] 	collision:count 	0
attr interpolationmode  none
attr title  "collision, count"
scalar SubstationSidhu2007.stationSwitch.eth[3] 	droppedPkNotForUs:count 	0
attr interpolationmode  none
attr source  dropPkNotForUs
attr title  "packets dropped/not for us, count"
scalar SubstationSidhu2007.stationSwitch.eth[3] 	droppedPkNotForUs:sum(packetBytes) 	0
attr interpolationmode  none
attr source  dropPkNotForUs
attr title  "packets dropped/not for us, sum(packetBytes)"
scalar SubstationSidhu2007.stationSwitch.eth[3] 	droppedPkBitError:count 	0
attr interpolationmode  none
attr source  dropPkBitError
attr title  "packets dropped/bit error, count"
scalar SubstationSidhu2007.stationSwitch.eth[3] 	droppedPkBitError:sum(packetBytes) 	0
attr interpolationmode  none
attr source  dropPkBitError
attr title  "packets dropped/bit error, sum(packetBytes)"
scalar SubstationSidhu2007.stationSwitch.eth[3] 	droppedPkIfaceDown:count 	0
attr interpolationmode  none
attr source  dropPkIfaceDown
attr title  "packets dropped/interface down, count"
scalar SubstationSidhu2007.stationSwitch.eth[3] 	droppedPkIfaceDown:sum(packetBytes) 	0
attr interpolationmode  none
attr source  dropPkIfaceDown
attr title  "packets dropped/interface down, sum(packetBytes)"
scalar SubstationSidhu2007.stationSwitch.eth[3] 	rxPkFromHL:count 	0
attr interpolationmode  none
attr source  rxPkFromHL
attr title  "packet bytes from higher layer, count"
scalar SubstationSidhu2007.stationSwitch.eth[3] 	rxPkFromHL:sum(packetBytes) 	0
attr interpolationmode  none
attr source  rxPkFromHL
attr title  "packet bytes from higher layer, sum(packetBytes)"
scalar SubstationSidhu2007.stationSwitch.eth[3] 	rxPausePkUnits:count 	0
attr interpolationmode  none
attr title  "pause units received, count"
scalar SubstationSidhu2007.stationSwitch.eth[3] 	rxPausePkUnits:sum 	0
attr interpolationmode  none
attr title  "pause units received, sum"
scalar SubstationSidhu2007.stationSwitch.eth[3] 	txPausePkUnits:count 	0
attr interpolationmode  none
attr title  "pause units sent, count"
scalar SubstationSidhu2007.stationSwitch.eth[3] 	txPausePkUnits:sum 	0
attr interpolationmode  none
attr title  "pause units sent, sum"
scalar SubstationSidhu2007.stationSwitch.eth[3] 	passedUpPk:count 	0
attr interpolationmode  none
attr source  packetSentToUpper
attr title  "packets passed to higher layer, count"
scalar SubstationSidhu2007.stationSwitch.eth[3] 	passedUpPk:sum(packetBytes) 	0
attr interpolationmode  none
attr source  packetSentToUpper
attr title  "packets passed to higher layer, sum(packetBytes)"
scalar SubstationSidhu2007.stationSwitch.eth[3] 	rxPkOk:count 	0
attr interpolationmode  none
attr source  rxPkOk
attr title  "packets received OK, count"
scalar SubstationSidhu2007.stationSwitch.eth[3] 	rxPkOk:sum(packetBytes) 	0
attr interpolationmode  none
attr source  rxPkOk
attr title  "packets received OK, sum(packetBytes)"
scalar SubstationSidhu2007.stationSwitch.eth[3] 	txPk:count 	0
attr interpolationmode  none
attr source  txPk
attr title  "packets transmitted, count"
scalar SubstationSidhu2007.stationSwitch.eth[3] 	txPk:sum(packetBytes) 	0
attr interpolationmode  none
attr source  txPk
attr title  "packets transmitted, sum(packetBytes)"
scalar SubstationSidhu2007.stationSwitch.eth[4] 	"simulated time" 	0
scalar SubstationSidhu2007.stationSwitch.eth[4] 	full-duplex 	1
scalar SubstationSidhu2007.stationSwitch.eth[4] 	"rx channel idle (%)" 	-nan
scalar SubstationSidhu2007.stationSwitch.eth[4] 	"rx channel utilization (%)" 	-nan
scalar SubstationSidhu2007.stationSwitch.eth[4] 	"rx channel collision (%)" 	-nan
scalar SubstationSidhu2007.stationSwitch.eth[4] 	collisions 	0
scalar SubstationSidhu2007.stationSwitch.eth[4] 	backoffs 	0
scalar SubstationSidhu2007.stationSwitch.eth[4] 	backoff:count 	0
attr interpolationmode  none
attr title  "backoff, count"
scalar SubstationSidhu2007.stationSwitch.eth[4] 	collision:count 	0
attr interpolationmode  none
attr title  "collision, count"
scalar SubstationSidhu2007.stationSwitch.eth[4] 	droppedPkNotForUs:count 	0
attr interpolationmode  none
attr source  dropPkNotForUs
attr title  "packets dropped/not for us, count"
scalar SubstationSidhu2007.stationSwitch.eth[4] 	droppedPkNotForUs:sum(packetBytes) 	0
attr interpolationmode  none
attr source  dropPkNotForUs
attr title  "packets dropped/not for us, sum(packetBytes)"
scalar SubstationSidhu2007.stationSwitch.eth[4] 	droppedPkBitError:count 	0
attr interpolationmode  none
attr source  dropPkBitError
attr title  "packets dropped/bit error, count"
scalar SubstationSidhu2007.stationSwitch.eth[4] 	droppedPkBitError:sum(packetBytes) 	0
attr interpolationmode  none
attr source  dropPkBitError
attr title  "packets dropped/bit error, sum(packetBytes)"
scalar SubstationSidhu2007.stationSwitch.eth[4] 	droppedPkIfaceDown:count 	0
attr interpolationmode  none
attr source  dropPkIfaceDown
attr title  "packets dropped/interface down, count"
scalar SubstationSidhu2007.stationSwitch.eth[4] 	droppedPkIfaceDown:sum(packetBytes) 	0
attr interpolationmode  none
attr source  dropPkIfaceDown
attr title  "packets dropped/interface down, sum(packetBytes)"
scalar SubstationSidhu2007.stationSwitch.eth[4] 	rxPkFromHL:count 	0
attr interpolationmode  none
attr source  rxPkFromHL
attr title  "packet bytes from higher layer, count"
scalar SubstationSidhu2007.stationSwitch.eth[4] 	rxPkFromHL:sum(packetBytes) 	0
attr interpolationmode  none
attr source  rxPkFromHL
attr title  "packet bytes from higher layer, sum(packetBytes)"
scalar SubstationSidhu2007.stationSwitch.eth[4] 	rxPausePkUnits:count 	0
attr interpolationmode  none
attr title  "pause units received, count"
scalar SubstationSidhu2007.stationSwitch.eth[4] 	rxPausePkUnits:sum 	0
attr interpolationmode  none
attr title  "pause units received, sum"
scalar SubstationSidhu2007.stationSwitch.eth[4] 	txPausePkUnits:count 	0
attr interpolationmode  none
attr title  "pause units sent, count"
scalar SubstationSidhu2007.stationSwitch.eth[4] 	txPausePkUnits:sum 	0
attr interpolationmode  none
attr title  "pause units sent, sum"
scalar SubstationSidhu2007.stationSwitch.eth[4] 	passedUpPk:count 	0
attr interpolationmode  none
attr source  packetSentToUpper
attr title  "packets passed to higher layer, count"
scalar SubstationSidhu2007.stationSwitch.eth[4] 	passedUpPk:sum(packetBytes) 	0
attr interpolationmode  none
attr source  packetSentToUpper
attr title  "packets passed to higher layer, sum(packetBytes)"
scalar SubstationSidhu2007.stationSwitch.eth[4] 	rxPkOk:count 	0
attr interpolationmode  none
attr source  rxPkOk
attr title  "packets received OK, count"
scalar SubstationSidhu2007.stationSwitch.eth[4] 	rxPkOk:sum(packetBytes) 	0
attr interpolationmode  none
attr source  rxPkOk
attr title  "packets received OK, sum(packetBytes)"
scalar SubstationSidhu2007.stationSwitch.eth[4] 	txPk:count 	0
attr interpolationmode  none
attr source  txPk
attr title  "packets transmitted, count"
scalar SubstationSidhu2007.stationSwitch.eth[4] 	txPk:sum(packetBytes) 	0
attr interpolationmode  none
attr source  txPk
attr title  "packets transmitted, sum(packetBytes)"
scalar SubstationSidhu2007.stationSwitch.eth[5] 	"simulated time" 	0
scalar SubstationSidhu2007.stationSwitch.eth[5] 	full-duplex 	1
scalar SubstationSidhu2007.stationSwitch.eth[5] 	"rx channel idle (%)" 	-nan
scalar SubstationSidhu2007.stationSwitch.eth[5] 	"rx channel utilization (%)" 	-nan
scalar SubstationSidhu2007.stationSwitch.eth[5] 	"rx channel collision (%)" 	-nan
scalar SubstationSidhu2007.stationSwitch.eth[5] 	collisions 	0
scalar SubstationSidhu2007.stationSwitch.eth[5] 	backoffs 	0
scalar SubstationSidhu2007.stationSwitch.eth[5] 	backoff:count 	0
attr interpolationmode  none
attr title  "backoff, count"
scalar SubstationSidhu2007.stationSwitch.eth[5] 	collision:count 	0
attr interpolationmode  none
attr title  "collision, count"
scalar SubstationSidhu2007.stationSwitch.eth[5] 	droppedPkNotForUs:count 	0
attr interpolationmode  none
attr source  dropPkNotForUs
attr title  "packets dropped/not for us, count"
scalar SubstationSidhu2007.stationSwitch.eth[5] 	droppedPkNotForUs:sum(packetBytes) 	0
attr interpolationmode  none
attr source  dropPkNotForUs
attr title  "packets dropped/not for us, sum(packetBytes)"
scalar SubstationSidhu2007.stationSwitch.eth[5] 	droppedPkBitError:count 	0
attr interpolationmode  none
attr source  dropPkBitError
attr title  "packets dropped/bit error, count"
scalar SubstationSidhu2007.stationSwitch.eth[5] 	droppedPkBitError:sum(packetBytes) 	0
attr interpolationmode  none
attr source  dropPkBitError
attr title  "packets dropped/bit error, sum(packetBytes)"
scalar SubstationSidhu2007.stationSwitch.eth[5] 	droppedPkIfaceDown:count 	0
attr interpolationmode  none
attr source  dropPkIfaceDown
attr title  "packets dropped/interface down, count"
scalar SubstationSidhu2007.stationSwitch.eth[5] 	droppedPkIfaceDown:sum(packetBytes) 	0
attr interpolationmode  none
attr source  dropPkIfaceDown
attr title  "packets dropped/interface down, sum(packetBytes)"
scalar SubstationSidhu2007.stationSwitch.eth[5] 	rxPkFromHL:count 	0
attr interpolationmode  none
attr source  rxPkFromHL
attr title  "packet bytes from higher layer, count"
scalar SubstationSidhu2007.stationSwitch.eth[5] 	rxPkFromHL:sum(packetBytes) 	0
attr interpolationmode  none
attr source  rxPkFromHL
attr title  "packet bytes from higher layer, sum(packetBytes)"
scalar SubstationSidhu2007.stationSwitch.eth[5] 	rxPausePkUnits:count 	0
attr interpolationmode  none
attr title  "pause units received, count"
scalar SubstationSidhu2007.stationSwitch.eth[5] 	rxPausePkUnits:sum 	0
attr interpolationmode  none
attr title  "pause units received, sum"
scalar SubstationSidhu2007.stationSwitch.eth[5] 	txPausePkUnits:count 	0
attr interpolationmode  none
attr title  "pause units sent, count"
scalar SubstationSidhu2007.stationSwitch.eth[5] 	txPausePkUnits:sum 	0
attr interpolationmode  none
attr title  "pause units sent, sum"
scalar SubstationSidhu2007.stationSwitch.eth[5] 	passedUpPk:count 	0
attr interpolationmode  none
attr source  packetSentToUpper
attr title  "packets passed to higher layer, count"
scalar SubstationSidhu2007.stationSwitch.eth[5] 	passedUpPk:sum(packetBytes) 	0
attr interpolationmode  none
attr source  packetSentToUpper
attr title  "packets passed to higher layer, sum(packetBytes)"
scalar SubstationSidhu2007.stationSwitch.eth[5] 	rxPkOk:count 	0
attr interpolationmode  none
attr source  rxPkOk
attr title  "packets received OK, count"
scalar SubstationSidhu2007.stationSwitch.eth[5] 	rxPkOk:sum(packetBytes) 	0
attr interpolationmode  none
attr source  rxPkOk
attr title  "packets received OK, sum(packetBytes)"
scalar SubstationSidhu2007.stationSwitch.eth[5] 	txPk:count 	0
attr interpolationmode  none
attr source  txPk
attr title  "packets transmitted, count"
scalar SubstationSidhu2007.stationSwitch.eth[5] 	txPk:sum(packetBytes) 	0
attr interpolationmode  none
attr source  txPk
attr title  "packets transmitted, sum(packetBytes)"
scalar SubstationSidhu2007.stationSwitch.eth[6] 	"simulated time" 	0
scalar SubstationSidhu2007.stationSwitch.eth[6] 	full-duplex 	1
scalar SubstationSidhu2007.stationSwitch.eth[6] 	"rx channel idle (%)" 	-nan
scalar SubstationSidhu2007.stationSwitch.eth[6] 	"rx channel utilization (%)" 	-nan
scalar SubstationSidhu2007.stationSwitch.eth[6] 	"rx channel collision (%)" 	-nan
scalar SubstationSidhu2007.stationSwitch.eth[6] 	collisions 	0
scalar SubstationSidhu2007.stationSwitch.eth[6] 	backoffs 	0
scalar SubstationSidhu2007.stationSwitch.eth[6] 	backoff:count 	0
attr interpolationmode  none
attr title  "backoff, count"
scalar SubstationSidhu2007.stationSwitch.eth[6] 	collision:count 	0
attr interpolationmode  none
attr title  "collision, count"
scalar SubstationSidhu2007.stationSwitch.eth[6] 	droppedPkNotForUs:count 	0
attr interpolationmode  none
attr source  dropPkNotForUs
attr title  "packets dropped/not for us, count"
scalar SubstationSidhu2007.stationSwitch.eth[6] 	droppedPkNotForUs:sum(packetBytes) 	0
attr interpolationmode  none
attr source  dropPkNotForUs
attr title  "packets dropped/not for us, sum(packetBytes)"
scalar SubstationSidhu2007.stationSwitch.eth[6] 	droppedPkBitError:count 	0
attr interpolationmode  none
attr source  dropPkBitError
attr title  "packets dropped/bit error, count"
scalar SubstationSidhu2007.stationSwitch.eth[6] 	droppedPkBitError:sum(packetBytes) 	0
attr interpolationmode  none
attr source  dropPkBitError
attr title  "packets dropped/bit error, sum(packetBytes)"
scalar SubstationSidhu2007.stationSwitch.eth[6] 	droppedPkIfaceDown:count 	0
attr interpolationmode  none
attr source  dropPkIfaceDown
attr title  "packets dropped/interface down, count"
scalar SubstationSidhu2007.stationSwitch.eth[6] 	droppedPkIfaceDown:sum(packetBytes) 	0
attr interpolationmode  none
attr source  dropPkIfaceDown
attr title  "packets dropped/interface down, sum(packetBytes)"
scalar SubstationSidhu2007.stationSwitch.eth[6] 	rxPkFromHL:count 	0
attr interpolationmode  none
attr source  rxPkFromHL
attr title  "packet bytes from higher layer, count"
scalar SubstationSidhu2007.stationSwitch.eth[6] 	rxPkFromHL:sum(packetBytes) 	0
attr interpolationmode  none
attr source  rxPkFromHL
attr title  "packet bytes from higher layer, sum(packetBytes)"
scalar SubstationSidhu2007.stationSwitch.eth[6] 	rxPausePkUnits:count 	0
attr interpolationmode  none
attr title  "pause units received, count"
scalar SubstationSidhu2007.stationSwitch.eth[6] 	rxPausePkUnits:sum 	0
attr interpolationmode  none
attr title  "pause units received, sum"
scalar SubstationSidhu2007.stationSwitch.eth[6] 	txPausePkUnits:count 	0
attr interpolationmode  none
attr title  "pause units sent, count"
scalar SubstationSidhu2007.stationSwitch.eth[6] 	txPausePkUnits:sum 	0
attr interpolationmode  none
attr title  "pause units sent, sum"
scalar SubstationSidhu2007.stationSwitch.eth[6] 	passedUpPk:count 	0
attr interpolationmode  none
attr source  packetSentToUpper
attr title  "packets passed to higher layer, count"
scalar SubstationSidhu2007.stationSwitch.eth[6] 	passedUpPk:sum(packetBytes) 	0
attr interpolationmode  none
attr source  packetSentToUpper
attr title  "packets passed to higher layer, sum(packetBytes)"
scalar SubstationSidhu2007.stationSwitch.eth[6] 	rxPkOk:count 	0
attr interpolationmode  none
attr source  rxPkOk
attr title  "packets received OK, count"
scalar SubstationSidhu2007.stationSwitch.eth[6] 	rxPkOk:sum(packetBytes) 	0
attr interpolationmode  none
attr source  rxPkOk
attr title  "packets received OK, sum(packetBytes)"
scalar SubstationSidhu2007.stationSwitch.eth[6] 	txPk:count 	0
attr interpolationmode  none
attr source  txPk
attr title  "packets transmitted, count"
scalar SubstationSidhu2007.stationSwitch.eth[6] 	txPk:sum(packetBytes) 	0
attr interpolationmode  none
attr source  txPk
attr title  "packets transmitted, sum(packetBytes)"
scalar SubstationSidhu2007.stationSwitch.eth[7] 	"simulated time" 	0
scalar SubstationSidhu2007.stationSwitch.eth[7] 	full-duplex 	1
scalar SubstationSidhu2007.stationSwitch.eth[7] 	"rx channel idle (%)" 	-nan
scalar SubstationSidhu2007.stationSwitch.eth[7] 	"rx channel utilization (%)" 	-nan
scalar SubstationSidhu2007.stationSwitch.eth[7] 	"rx channel collision (%)" 	-nan
scalar SubstationSidhu2007.stationSwitch.eth[7] 	collisions 	0
scalar SubstationSidhu2007.stationSwitch.eth[7] 	backoffs 	0
scalar SubstationSidhu2007.stationSwitch.eth[7] 	backoff:count 	0
attr interpolationmode  none
attr title  "backoff, count"
scalar SubstationSidhu2007.stationSwitch.eth[7] 	collision:count 	0
attr interpolationmode  none
attr title  "collision, count"
scalar SubstationSidhu2007.stationSwitch.eth[7] 	droppedPkNotForUs:count 	0
attr interpolationmode  none
attr source  dropPkNotForUs
attr title  "packets dropped/not for us, count"
scalar SubstationSidhu2007.stationSwitch.eth[7] 	droppedPkNotForUs:sum(packetBytes) 	0
attr interpolationmode  none
attr source  dropPkNotForUs
attr title  "packets dropped/not for us, sum(packetBytes)"
scalar SubstationSidhu2007.stationSwitch.eth[7] 	droppedPkBitError:count 	0
attr interpolationmode  none
attr source  dropPkBitError
attr title  "packets dropped/bit error, count"
scalar SubstationSidhu2007.stationSwitch.eth[7] 	droppedPkBitError:sum(packetBytes) 	0
attr interpolationmode  none
attr source  dropPkBitError
attr title  "packets dropped/bit error, sum(packetBytes)"
scalar SubstationSidhu2007.stationSwitch.eth[7] 	droppedPkIfaceDown:count 	0
attr interpolationmode  none
attr source  dropPkIfaceDown
attr title  "packets dropped/interface down, count"
scalar SubstationSidhu2007.stationSwitch.eth[7] 	droppedPkIfaceDown:sum(packetBytes) 	0
attr interpolationmode  none
attr source  dropPkIfaceDown
attr title  "packets dropped/interface down, sum(packetBytes)"
scalar SubstationSidhu2007.stationSwitch.eth[7] 	rxPkFromHL:count 	0
attr interpolationmode  none
attr source  rxPkFromHL
attr title  "packet bytes from higher layer, count"
scalar SubstationSidhu2007.stationSwitch.eth[7] 	rxPkFromHL:sum(packetBytes) 	0
attr interpolationmode  none
attr source  rxPkFromHL
attr title  "packet bytes from higher layer, sum(packetBytes)"
scalar SubstationSidhu2007.stationSwitch.eth[7] 	rxPausePkUnits:count 	0
attr interpolationmode  none
attr title  "pause units received, count"
scalar SubstationSidhu2007.stationSwitch.eth[7] 	rxPausePkUnits:sum 	0
attr interpolationmode  none
attr title  "pause units received, sum"
scalar SubstationSidhu2007.stationSwitch.eth[7] 	txPausePkUnits:count 	0
attr interpolationmode  none
attr title  "pause units sent, count"
scalar SubstationSidhu2007.stationSwitch.eth[7] 	txPausePkUnits:sum 	0
attr interpolationmode  none
attr title  "pause units sent, sum"
scalar SubstationSidhu2007.stationSwitch.eth[7] 	passedUpPk:count 	0
attr interpolationmode  none
attr source  packetSentToUpper
attr title  "packets passed to higher layer, count"
scalar SubstationSidhu2007.stationSwitch.eth[7] 	passedUpPk:sum(packetBytes) 	0
attr interpolationmode  none
attr source  packetSentToUpper
attr title  "packets passed to higher layer, sum(packetBytes)"
scalar SubstationSidhu2007.stationSwitch.eth[7] 	rxPkOk:count 	0
attr interpolationmode  none
attr source  rxPkOk
attr title  "packets received OK, count"
scalar SubstationSidhu2007.stationSwitch.eth[7] 	rxPkOk:sum(packetBytes) 	0
attr interpolationmode  none
attr source  rxPkOk
attr title  "packets received OK, sum(packetBytes)"
scalar SubstationSidhu2007.stationSwitch.eth[7] 	txPk:count 	0
attr interpolationmode  none
attr source  txPk
attr title  "packets transmitted, count"
scalar SubstationSidhu2007.stationSwitch.eth[7] 	txPk:sum(packetBytes) 	0
attr interpolationmode  none
attr source  txPk
attr title  "packets transmitted, sum(packetBytes)"
scalar SubstationSidhu2007.stationSwitch.eth[8] 	"simulated time" 	0
scalar SubstationSidhu2007.stationSwitch.eth[8] 	full-duplex 	1
scalar SubstationSidhu2007.stationSwitch.eth[8] 	"rx channel idle (%)" 	-nan
scalar SubstationSidhu2007.stationSwitch.eth[8] 	"rx channel utilization (%)" 	-nan
scalar SubstationSidhu2007.stationSwitch.eth[8] 	"rx channel collision (%)" 	-nan
scalar SubstationSidhu2007.stationSwitch.eth[8] 	collisions 	0
scalar SubstationSidhu2007.stationSwitch.eth[8] 	backoffs 	0
scalar SubstationSidhu2007.stationSwitch.eth[8] 	backoff:count 	0
attr interpolationmode  none
attr title  "backoff, count"
scalar SubstationSidhu2007.stationSwitch.eth[8] 	collision:count 	0
attr interpolationmode  none
attr title  "collision, count"
scalar SubstationSidhu2007.stationSwitch.eth[8] 	droppedPkNotForUs:count 	0
attr interpolationmode  none
attr source  dropPkNotForUs
attr title  "packets dropped/not for us, count"
scalar SubstationSidhu2007.stationSwitch.eth[8] 	droppedPkNotForUs:sum(packetBytes) 	0
attr interpolationmode  none
attr source  dropPkNotForUs
attr title  "packets dropped/not for us, sum(packetBytes)"
scalar SubstationSidhu2007.stationSwitch.eth[8] 	droppedPkBitError:count 	0
attr interpolationmode  none
attr source  dropPkBitError
attr title  "packets dropped/bit error, count"
scalar SubstationSidhu2007.stationSwitch.eth[8] 	droppedPkBitError:sum(packetBytes) 	0
attr interpolationmode  none
attr source  dropPkBitError
attr title  "packets dropped/bit error, sum(packetBytes)"
scalar SubstationSidhu2007.stationSwitch.eth[8] 	droppedPkIfaceDown:count 	0
attr interpolationmode  none
attr source  dropPkIfaceDown
attr title  "packets dropped/interface down, count"
scalar SubstationSidhu2007.stationSwitch.eth[8] 	droppedPkIfaceDown:sum(packetBytes) 	0
attr interpolationmode  none
attr source  dropPkIfaceDown
attr title  "packets dropped/interface down, sum(packetBytes)"
scalar SubstationSidhu2007.stationSwitch.eth[8] 	rxPkFromHL:count 	0
attr interpolationmode  none
attr source  rxPkFromHL
attr title  "packet bytes from higher layer, count"
scalar SubstationSidhu2007.stationSwitch.eth[8] 	rxPkFromHL:sum(packetBytes) 	0
attr interpolationmode  none
attr source  rxPkFromHL
attr title  "packet bytes from higher layer, sum(packetBytes)"
scalar SubstationSidhu2007.stationSwitch.eth[8] 	rxPausePkUnits:count 	0
attr interpolationmode  none
attr title  "pause units received, count"
scalar SubstationSidhu2007.stationSwitch.eth[8] 	rxPausePkUnits:sum 	0
attr interpolationmode  none
attr title  "pause units received, sum"
scalar SubstationSidhu2007.stationSwitch.eth[8] 	txPausePkUnits:count 	0
attr interpolationmode  none
attr title  "pause units sent, count"
scalar SubstationSidhu2007.stationSwitch.eth[8] 	txPausePkUnits:sum 	0
attr interpolationmode  none
attr title  "pause units sent, sum"
scalar SubstationSidhu2007.stationSwitch.eth[8] 	passedUpPk:count 	0
attr interpolationmode  none
attr source  packetSentToUpper
attr title  "packets passed to higher layer, count"
scalar SubstationSidhu2007.stationSwitch.eth[8] 	passedUpPk:sum(packetBytes) 	0
attr interpolationmode  none
attr source  packetSentToUpper
attr title  "packets passed to higher layer, sum(packetBytes)"
scalar SubstationSidhu2007.stationSwitch.eth[8] 	rxPkOk:count 	0
attr interpolationmode  none
attr source  rxPkOk
attr title  "packets received OK, count"
scalar SubstationSidhu2007.stationSwitch.eth[8] 	rxPkOk:sum(packetBytes) 	0
attr interpolationmode  none
attr source  rxPkOk
attr title  "packets received OK, sum(packetBytes)"
scalar SubstationSidhu2007.stationSwitch.eth[8] 	txPk:count 	0
attr interpolationmode  none
attr source  txPk
attr title  "packets transmitted, count"
scalar SubstationSidhu2007.stationSwitch.eth[8] 	txPk:sum(packetBytes) 	0
attr interpolationmode  none
attr source  txPk
attr title  "packets transmitted, sum(packetBytes)"
scalar SubstationSidhu2007.stationSwitch.eth[9] 	"simulated time" 	0
scalar SubstationSidhu2007.stationSwitch.eth[9] 	full-duplex 	1
scalar SubstationSidhu2007.stationSwitch.eth[9] 	"rx channel idle (%)" 	-nan
scalar SubstationSidhu2007.stationSwitch.eth[9] 	"rx channel utilization (%)" 	-nan
scalar SubstationSidhu2007.stationSwitch.eth[9] 	"rx channel collision (%)" 	-nan
scalar SubstationSidhu2007.stationSwitch.eth[9] 	collisions 	0
scalar SubstationSidhu2007.stationSwitch.eth[9] 	backoffs 	0
scalar SubstationSidhu2007.stationSwitch.eth[9] 	backoff:count 	0
attr interpolationmode  none
attr title  "backoff, count"
scalar SubstationSidhu2007.stationSwitch.eth[9] 	collision:count 	0
attr interpolationmode  none
attr title  "collision, count"
scalar SubstationSidhu2007.stationSwitch.eth[9] 	droppedPkNotForUs:count 	0
attr interpolationmode  none
attr source  dropPkNotForUs
attr title  "packets dropped/not for us, count"
scalar SubstationSidhu2007.stationSwitch.eth[9] 	droppedPkNotForUs:sum(packetBytes) 	0
attr interpolationmode  none
attr source  dropPkNotForUs
attr title  "packets dropped/not for us, sum(packetBytes)"
scalar SubstationSidhu2007.stationSwitch.eth[9] 	droppedPkBitError:count 	0
attr interpolationmode  none
attr source  dropPkBitError
attr title  "packets dropped/bit error, count"
scalar SubstationSidhu2007.stationSwitch.eth[9] 	droppedPkBitError:sum(packetBytes) 	0
attr interpolationmode  none
attr source  dropPkBitError
attr title  "packets dropped/bit error, sum(packetBytes)"
scalar SubstationSidhu2007.stationSwitch.eth[9] 	droppedPkIfaceDown:count 	0
attr interpolationmode  none
attr source  dropPkIfaceDown
attr title  "packets dropped/interface down, count"
scalar SubstationSidhu2007.stationSwitch.eth[9] 	droppedPkIfaceDown:sum(packetBytes) 	0
attr interpolationmode  none
attr source  dropPkIfaceDown
attr title  "packets dropped/interface down, sum(packetBytes)"
scalar SubstationSidhu2007.stationSwitch.eth[9] 	rxPkFromHL:count 	0
attr interpolationmode  none
attr source  rxPkFromHL
attr title  "packet bytes from higher layer, count"
scalar SubstationSidhu2007.stationSwitch.eth[9] 	rxPkFromHL:sum(packetBytes) 	0
attr interpolationmode  none
attr source  rxPkFromHL
attr title  "packet bytes from higher layer, sum(packetBytes)"
scalar SubstationSidhu2007.stationSwitch.eth[9] 	rxPausePkUnits:count 	0
attr interpolationmode  none
attr title  "pause units received, count"
scalar SubstationSidhu2007.stationSwitch.eth[9] 	rxPausePkUnits:sum 	0
attr interpolationmode  none
attr title  "pause units received, sum"
scalar SubstationSidhu2007.stationSwitch.eth[9] 	txPausePkUnits:count 	0
attr interpolationmode  none
attr title  "pause units sent, count"
scalar SubstationSidhu2007.stationSwitch.eth[9] 	txPausePkUnits:sum 	0
attr interpolationmode  none
attr title  "pause units sent, sum"
scalar SubstationSidhu2007.stationSwitch.eth[9] 	passedUpPk:count 	0
attr interpolationmode  none
attr source  packetSentToUpper
attr title  "packets passed to higher layer, count"
scalar SubstationSidhu2007.stationSwitch.eth[9] 	passedUpPk:sum(packetBytes) 	0
attr interpolationmode  none
attr source  packetSentToUpper
attr title  "packets passed to higher layer, sum(packetBytes)"
scalar SubstationSidhu2007.stationSwitch.eth[9] 	rxPkOk:count 	0
attr interpolationmode  none
attr source  rxPkOk
attr title  "packets received OK, count"
scalar SubstationSidhu2007.stationSwitch.eth[9] 	rxPkOk:sum(packetBytes) 	0
attr interpolationmode  none
attr source  rxPkOk
attr title  "packets received OK, sum(packetBytes)"
scalar SubstationSidhu2007.stationSwitch.eth[9] 	txPk:count 	0
attr interpolationmode  none
attr source  txPk
attr title  "packets transmitted, count"
scalar SubstationSidhu2007.stationSwitch.eth[9] 	txPk:sum(packetBytes) 	0
attr interpolationmode  none
attr source  txPk
attr title  "packets transmitted, sum(packetBytes)"
scalar SubstationSidhu2007.stationSwitch.relay 	"processed frames" 	0
scalar SubstationSidhu2007.stationSwitch.relay 	"dropped frames" 	0
scalar SubstationSidhu2007.T1.breaker[0].queue.pauseQueue 	queueLength:max 	0
attr interpolationmode  sample-hold
attr title  "queue length, max"
scalar SubstationSidhu2007.T1.breaker[0].queue.pauseQueue 	queueLength:timeavg 	-nan
attr interpolationmode  sample-hold
attr title  "queue length, timeavg"
statistic SubstationSidhu2007.T1.breaker[0].queue.pauseQueue 	queueingTime:histogram
field count 0
field mean 0
field stddev -nan
field sum 0
field sqrsum 0
field min 0
field max 0
attr interpolationmode  none
attr title  "queueing time, histogram"
bin	-INF	0
bin	-0.5	0
bin	-0.46666666666667	0
bin	-0.43333333333333	0
bin	-0.4	0
bin	-0.36666666666667	0
bin	-0.33333333333333	0
bin	-0.3	0
bin	-0.26666666666667	0
bin	-0.23333333333333	0
bin	-0.2	0
bin	-0.16666666666667	0
bin	-0.13333333333333	0
bin	-0.1	0
bin	-0.066666666666667	0
bin	-0.033333333333333	0
bin	-6.9388939039072e-18	0
bin	0.033333333333333	0
bin	0.066666666666667	0
bin	0.1	0
bin	0.13333333333333	0
bin	0.16666666666667	0
bin	0.2	0
bin	0.23333333333333	0
bin	0.26666666666667	0
bin	0.3	0
bin	0.33333333333333	0
bin	0.36666666666667	0
bin	0.4	0
bin	0.43333333333333	0
bin	0.46666666666667	0
bin	0.5	0
scalar SubstationSidhu2007.T1.breaker[0].queue.pauseQueue 	dropPk:count 	0
attr interpolationmode  none
attr source  dropPkByQueue
attr title  "dropped packets, count"
scalar SubstationSidhu2007.T1.breaker[0].queue.pauseQueue 	dropPk:sum(packetBytes) 	0
attr interpolationmode  none
attr source  dropPkByQueue
attr title  "dropped packets, sum(packetBytes)"
scalar SubstationSidhu2007.T1.breaker[0].queue.pauseQueue 	rcvdPk:count 	0
attr interpolationmode  none
attr title  "received packets, count"
scalar SubstationSidhu2007.T1.breaker[0].queue.pauseQueue 	rcvdPk:sum(packetBytes) 	0
attr interpolationmode  none
attr title  "received packets, sum(packetBytes)"
scalar SubstationSidhu2007.T1.breaker[0].queue.dataQueue 	queueLength:max 	0
attr interpolationmode  sample-hold
attr title  "queue length, max"
scalar SubstationSidhu2007.T1.breaker[0].queue.dataQueue 	queueLength:timeavg 	-nan
attr interpolationmode  sample-hold
attr title  "queue length, timeavg"
statistic SubstationSidhu2007.T1.breaker[0].queue.dataQueue 	queueingTime:histogram
field count 0
field mean 0
field stddev -nan
field sum 0
field sqrsum 0
field min 0
field max 0
attr interpolationmode  none
attr title  "queueing time, histogram"
bin	-INF	0
bin	-0.5	0
bin	-0.46666666666667	0
bin	-0.43333333333333	0
bin	-0.4	0
bin	-0.36666666666667	0
bin	-0.33333333333333	0
bin	-0.3	0
bin	-0.26666666666667	0
bin	-0.23333333333333	0
bin	-0.2	0
bin	-0.16666666666667	0
bin	-0.13333333333333	0
bin	-0.1	0
bin	-0.066666666666667	0
bin	-0.033333333333333	0
bin	-6.9388939039072e-18	0
bin	0.033333333333333	0
bin	0.066666666666667	0
bin	0.1	0
bin	0.13333333333333	0
bin	0.16666666666667	0
bin	0.2	0
bin	0.23333333333333	0
bin	0.26666666666667	0
bin	0.3	0
bin	0.33333333333333	0
bin	0.36666666666667	0
bin	0.4	0
bin	0.43333333333333	0
bin	0.46666666666667	0
bin	0.5	0
scalar SubstationSidhu2007.T1.breaker[0].queue.dataQueue 	dropPk:count 	0
attr interpolationmode  none
attr source  dropPkByQueue
attr title  "dropped packets, count"
scalar SubstationSidhu2007.T1.breaker[0].queue.dataQueue 	dropPk:sum(packetBytes) 	0
attr interpolationmode  none
attr source  dropPkByQueue
attr title  "dropped packets, sum(packetBytes)"
scalar SubstationSidhu2007.T1.breaker[0].queue.dataQueue 	rcvdPk:count 	0
attr interpolationmode  none
attr title  "received packets, count"
scalar SubstationSidhu2007.T1.breaker[0].queue.dataQueue 	rcvdPk:sum(packetBytes) 	0
attr interpolationmode  none
attr title  "received packets, sum(packetBytes)"
scalar SubstationSidhu2007.T1.breaker[0].mac 	"simulated time" 	0
scalar SubstationSidhu2007.T1.breaker[0].mac 	full-duplex 	1
scalar SubstationSidhu2007.T1.breaker[0].mac 	"rx channel idle (%)" 	-nan
scalar SubstationSidhu2007.T1.breaker[0].mac 	"rx channel utilization (%)" 	-nan
scalar SubstationSidhu2007.T1.breaker[0].mac 	"rx channel collision (%)" 	-nan
scalar SubstationSidhu2007.T1.breaker[0].mac 	collisions 	0
scalar SubstationSidhu2007.T1.breaker[0].mac 	backoffs 	0
scalar SubstationSidhu2007.T1.breaker[0].mac 	backoff:count 	0
attr interpolationmode  none
attr title  "backoff, count"
scalar SubstationSidhu2007.T1.breaker[0].mac 	collision:count 	0
attr interpolationmode  none
attr title  "collision, count"
scalar SubstationSidhu2007.T1.breaker[0].mac 	droppedPkNotForUs:count 	0
attr interpolationmode  none
attr source  dropPkNotForUs
attr title  "packets dropped/not for us, count"
scalar SubstationSidhu2007.T1.breaker[0].mac 	droppedPkNotForUs:sum(packetBytes) 	0
attr interpolationmode  none
attr source  dropPkNotForUs
attr title  "packets dropped/not for us, sum(packetBytes)"
scalar SubstationSidhu2007.T1.breaker[0].mac 	droppedPkBitError:count 	0
attr interpolationmode  none
attr source  dropPkBitError
attr title  "packets dropped/bit error, count"
scalar SubstationSidhu2007.T1.breaker[0].mac 	droppedPkBitError:sum(packetBytes) 	0
attr interpolationmode  none
attr source  dropPkBitError
attr title  "packets dropped/bit error, sum(packetBytes)"
scalar SubstationSidhu2007.T1.breaker[0].mac 	droppedPkIfaceDown:count 	0
attr interpolationmode  none
attr source  dropPkIfaceDown
attr title  "packets dropped/interface down, count"
scalar SubstationSidhu2007.T1.breaker[0].mac 	droppedPkIfaceDown:sum(packetBytes) 	0
attr interpolationmode  none
attr source  dropPkIfaceDown
attr title  "packets dropped/interface down, sum(packetBytes)"
scalar SubstationSidhu2007.T1.breaker[0].mac 	rxPkFromHL:count 	0
attr interpolationmode  none
attr source  rxPkFromHL
attr title  "packet bytes from higher layer, count"
scalar SubstationSidhu2007.T1.breaker[0].mac 	rxPkFromHL:sum(packetBytes) 	0
attr interpolationmode  none
attr source  rxPkFromHL
attr title  "packet bytes from higher layer, sum(packetBytes)"
scalar SubstationSidhu2007.T1.breaker[0].mac 	rxPausePkUnits:count 	0
attr interpolationmode  none
attr title  "pause units received, count"
scalar SubstationSidhu2007.T1.breaker[0].mac 	rxPausePkUnits:sum 	0
attr interpolationmode  none
attr title  "pause units received, sum"
scalar SubstationSidhu2007.T1.breaker[0].mac 	txPausePkUnits:count 	0
attr interpolationmode  none
attr title  "pause units sent, count"
scalar SubstationSidhu2007.T1.breaker[0].mac 	txPausePkUnits:sum 	0
attr interpolationmode  none
attr title  "pause units sent, sum"
scalar SubstationSidhu2007.T1.breaker[0].mac 	passedUpPk:count 	0
attr interpolationmode  none
attr source  packetSentToUpper
attr title  "packets passed to higher layer, count"
scalar SubstationSidhu2007.T1.breaker[0].mac 	passedUpPk:sum(packetBytes) 	0
attr interpolationmode  none
attr source  packetSentToUpper
attr title  "packets passed to higher layer, sum(packetBytes)"
scalar SubstationSidhu2007.T1.breaker[0].mac 	rxPkOk:count 	0
attr interpolationmode  none
attr source  rxPkOk
attr title  "packets received OK, count"
scalar SubstationSidhu2007.T1.breaker[0].mac 	rxPkOk:sum(packetBytes) 	0
attr interpolationmode  none
attr source  rxPkOk
attr title  "packets received OK, sum(packetBytes)"
scalar SubstationSidhu2007.T1.breaker[0].mac 	txPk:count 	0
attr interpolationmode  none
attr source  txPk
attr title  "packets transmitted, count"
scalar SubstationSidhu2007.T1.breaker[0].mac 	txPk:sum(packetBytes) 	0
attr interpolationmode  none
attr source  txPk
attr title  "packets transmitted, sum(packetBytes)"
scalar SubstationSidhu2007.T1.breaker[0].encap 	pauseSent:count 	0
attr title  "pause sent, count"
scalar SubstationSidhu2007.T1.breaker[0].encap 	pauseSent:sum 	0
attr title  "pause sent, sum"
scalar SubstationSidhu2007.T1.breaker[0].encap 	decapPk:count 	0
attr interpolationmode  none
attr source  decapPk
attr title  "packets decapsulated, count"
scalar SubstationSidhu2007.T1.breaker[0].encap 	decapPk:sum(packetBytes) 	0
attr interpolationmode  none
attr source  decapPk
attr title  "packets decapsulated, sum(packetBytes)"
scalar SubstationSidhu2007.T1.breaker[0].encap 	encapPk:count 	0
attr interpolationmode  none
attr source  encapPk
attr title  "packets encapsulated, count"
scalar SubstationSidhu2007.T1.breaker[0].encap 	encapPk:sum(packetBytes) 	0
attr interpolationmode  none
attr source  encapPk
attr title  "packets encapsulated, sum(packetBytes)"
scalar SubstationSidhu2007.T1.breaker[0].networkLayer.arp 	failedResolution:count 	0
attr title  "ARP failed resolutions, count"
scalar SubstationSidhu2007.T1.breaker[0].networkLayer.arp 	initiatedResolution:count 	0
attr title  "ARP initiated resolutions, count"
scalar SubstationSidhu2007.T1.breaker[0].networkLayer.arp 	sentReplies:count 	0
attr title  "ARP replies sent, count"
scalar SubstationSidhu2007.T1.breaker[0].networkLayer.arp 	sentReq:count 	0
attr title  "ARP request sent, count"
statistic SubstationSidhu2007.T1.breaker[0].iec61850trafgen 	eteTrip1A:histogram
field count 0
field mean 0
field stddev -nan
field sum 0
field sqrsum 0
field min 0
field max 0
attr interpolationmode  none
attr source  messageAge(rcvdTrip1A)
attr title  "eteTrip1A, histogram"
attr unit  s
bin	-INF	0
bin	-0.5	0
bin	-0.46666666666667	0
bin	-0.43333333333333	0
bin	-0.4	0
bin	-0.36666666666667	0
bin	-0.33333333333333	0
bin	-0.3	0
bin	-0.26666666666667	0
bin	-0.23333333333333	0
bin	-0.2	0
bin	-0.16666666666667	0
bin	-0.13333333333333	0
bin	-0.1	0
bin	-0.066666666666667	0
bin	-0.033333333333333	0
bin	-6.9388939039072e-18	0
bin	0.033333333333333	0
bin	0.066666666666667	0
bin	0.1	0
bin	0.13333333333333	0
bin	0.16666666666667	0
bin	0.2	0
bin	0.23333333333333	0
bin	0.26666666666667	0
bin	0.3	0
bin	0.33333333333333	0
bin	0.36666666666667	0
bin	0.4	0
bin	0.43333333333333	0
bin	0.46666666666667	0
bin	0.5	0
scalar SubstationSidhu2007.T1.breaker[0].iec61850trafgen 	sentPk:count 	0
attr interpolationmode  none
attr source  sentPk
attr title  "packets sent, count"
scalar SubstationSidhu2007.T1.breaker[0].iec61850trafgen 	sentPk:sum(packetBytes) 	0
attr interpolationmode  none
attr source  sentPk
attr title  "packets sent, sum(packetBytes)"
scalar SubstationSidhu2007.T1.breaker[0].iec61850trafgen 	rcvdPk:count 	0
attr interpolationmode  none
attr source  rcvdPk
attr title  "packets received, count"
scalar SubstationSidhu2007.T1.breaker[0].iec61850trafgen 	rcvdPk:sum(packetBytes) 	0
attr interpolationmode  none
attr source  rcvdPk
attr title  "packets received, sum(packetBytes)"
statistic SubstationSidhu2007.T1.breaker[0].iec61850trafgen 	endToEndDelay:histogram
field count 0
field mean 0
field stddev -nan
field sum 0
field sqrsum 0
field min 0
field max 0
attr interpolationmode  none
attr source  messageAge(rcvdPk)
attr title  "end-to-end delay, histogram"
attr unit  s
bin	-INF	0
bin	-0.5	0
bin	-0.46666666666667	0
bin	-0.43333333333333	0
bin	-0.4	0
bin	-0.36666666666667	0
bin	-0.33333333333333	0
bin	-0.3	0
bin	-0.26666666666667	0
bin	-0.23333333333333	0
bin	-0.2	0
bin	-0.16666666666667	0
bin	-0.13333333333333	0
bin	-0.1	0
bin	-0.066666666666667	0
bin	-0.033333333333333	0
bin	-6.9388939039072e-18	0
bin	0.033333333333333	0
bin	0.066666666666667	0
bin	0.1	0
bin	0.13333333333333	0
bin	0.16666666666667	0
bin	0.2	0
bin	0.23333333333333	0
bin	0.26666666666667	0
bin	0.3	0
bin	0.33333333333333	0
bin	0.36666666666667	0
bin	0.4	0
bin	0.43333333333333	0
bin	0.46666666666667	0
bin	0.5	0
scalar SubstationSidhu2007.T1.breaker[0].mms 	numActiveSessions:max 	-nan
attr interpolationmode  sample-hold
attr source  sum(connect)
attr title  "number of active sessions, max"
scalar SubstationSidhu2007.T1.breaker[0].mms 	numActiveSessions:timeavg 	-nan
attr interpolationmode  sample-hold
attr source  sum(connect)
attr title  "number of active sessions, timeavg"
scalar SubstationSidhu2007.T1.breaker[0].mms 	numSessions:last 	-nan
attr source  sum(connect+1)/2
attr title  "total number of sessions, last"
scalar SubstationSidhu2007.T1.breaker[0].mms 	sentPk:count 	0
attr interpolationmode  none
attr source  sentPk
attr title  "packets sent, count"
scalar SubstationSidhu2007.T1.breaker[0].mms 	sentPk:sum(packetBytes) 	0
attr interpolationmode  none
attr source  sentPk
attr title  "packets sent, sum(packetBytes)"
scalar SubstationSidhu2007.T1.breaker[0].mms 	rcvdPk:count 	0
attr interpolationmode  none
attr source  rcvdPk
attr title  "packets received, count"
scalar SubstationSidhu2007.T1.breaker[0].mms 	rcvdPk:sum(packetBytes) 	0
attr interpolationmode  none
attr source  rcvdPk
attr title  "packets received, sum(packetBytes)"
statistic SubstationSidhu2007.T1.breaker[0].mms 	endToEndDelay:histogram
field count 0
field mean 0
field stddev -nan
field sum 0
field sqrsum 0
field min 0
field max 0
attr interpolationmode  none
attr source  messageAge(rcvdPk)
attr title  "end-to-end delay, histogram"
attr unit  s
bin	-INF	0
bin	-0.5	0
bin	-0.46666666666667	0
bin	-0.43333333333333	0
bin	-0.4	0
bin	-0.36666666666667	0
bin	-0.33333333333333	0
bin	-0.3	0
bin	-0.26666666666667	0
bin	-0.23333333333333	0
bin	-0.2	0
bin	-0.16666666666667	0
bin	-0.13333333333333	0
bin	-0.1	0
bin	-0.066666666666667	0
bin	-0.033333333333333	0
bin	-6.9388939039072e-18	0
bin	0.033333333333333	0
bin	0.066666666666667	0
bin	0.1	0
bin	0.13333333333333	0
bin	0.16666666666667	0
bin	0.2	0
bin	0.23333333333333	0
bin	0.26666666666667	0
bin	0.3	0
bin	0.33333333333333	0
bin	0.36666666666667	0
bin	0.4	0
bin	0.43333333333333	0
bin	0.46666666666667	0
bin	0.5	0
scalar SubstationSidhu2007.T1.breaker[0].IPburst 	sentPk:count 	0
attr interpolationmode  none
attr source  sentPk
attr title  "packets sent, count"
scalar SubstationSidhu2007.T1.breaker[0].IPburst 	sentPk:sum(packetBytes) 	0
attr interpolationmode  none
attr source  sentPk
attr title  "packets sent, sum(packetBytes)"
scalar SubstationSidhu2007.T1.breaker[0].IPburst 	rcvdPk:count 	0
attr interpolationmode  none
attr source  rcvdPk
attr title  "packets received, count"
scalar SubstationSidhu2007.T1.breaker[0].IPburst 	rcvdPk:sum(packetBytes) 	0
attr interpolationmode  none
attr source  rcvdPk
attr title  "packets received, sum(packetBytes)"
statistic SubstationSidhu2007.T1.breaker[0].IPburst 	endToEndDelay:histogram
field count 0
field mean 0
field stddev -nan
field sum 0
field sqrsum 0
field min 0
field max 0
attr interpolationmode  none
attr source  messageAge(rcvdPk)
attr title  "end-to-end delay, histogram"
attr unit  s
bin	-INF	0
bin	-0.5	0
bin	-0.46666666666667	0
bin	-0.43333333333333	0
bin	-0.4	0
bin	-0.36666666666667	0
bin	-0.33333333333333	0
bin	-0.3	0
bin	-0.26666666666667	0
bin	-0.23333333333333	0
bin	-0.2	0
bin	-0.16666666666667	0
bin	-0.13333333333333	0
bin	-0.1	0
bin	-0.066666666666667	0
bin	-0.033333333333333	0
bin	-6.9388939039072e-18	0
bin	0.033333333333333	0
bin	0.066666666666667	0
bin	0.1	0
bin	0.13333333333333	0
bin	0.16666666666667	0
bin	0.2	0
bin	0.23333333333333	0
bin	0.26666666666667	0
bin	0.3	0
bin	0.33333333333333	0
bin	0.36666666666667	0
bin	0.4	0
bin	0.43333333333333	0
bin	0.46666666666667	0
bin	0.5	0
scalar SubstationSidhu2007.T1.breaker[1].queue.pauseQueue 	queueLength:max 	0
attr interpolationmode  sample-hold
attr title  "queue length, max"
scalar SubstationSidhu2007.T1.breaker[1].queue.pauseQueue 	queueLength:timeavg 	-nan
attr interpolationmode  sample-hold
attr title  "queue length, timeavg"
statistic SubstationSidhu2007.T1.breaker[1].queue.pauseQueue 	queueingTime:histogram
field count 0
field mean 0
field stddev -nan
field sum 0
field sqrsum 0
field min 0
field max 0
attr interpolationmode  none
attr title  "queueing time, histogram"
bin	-INF	0
bin	-0.5	0
bin	-0.46666666666667	0
bin	-0.43333333333333	0
bin	-0.4	0
bin	-0.36666666666667	0
bin	-0.33333333333333	0
bin	-0.3	0
bin	-0.26666666666667	0
bin	-0.23333333333333	0
bin	-0.2	0
bin	-0.16666666666667	0
bin	-0.13333333333333	0
bin	-0.1	0
bin	-0.066666666666667	0
bin	-0.033333333333333	0
bin	-6.9388939039072e-18	0
bin	0.033333333333333	0
bin	0.066666666666667	0
bin	0.1	0
bin	0.13333333333333	0
bin	0.16666666666667	0
bin	0.2	0
bin	0.23333333333333	0
bin	0.26666666666667	0
bin	0.3	0
bin	0.33333333333333	0
bin	0.36666666666667	0
bin	0.4	0
bin	0.43333333333333	0
bin	0.46666666666667	0
bin	0.5	0
scalar SubstationSidhu2007.T1.breaker[1].queue.pauseQueue 	dropPk:count 	0
attr interpolationmode  none
attr source  dropPkByQueue
attr title  "dropped packets, count"
scalar SubstationSidhu2007.T1.breaker[1].queue.pauseQueue 	dropPk:sum(packetBytes) 	0
attr interpolationmode  none
attr source  dropPkByQueue
attr title  "dropped packets, sum(packetBytes)"
scalar SubstationSidhu2007.T1.breaker[1].queue.pauseQueue 	rcvdPk:count 	0
attr interpolationmode  none
attr title  "received packets, count"
scalar SubstationSidhu2007.T1.breaker[1].queue.pauseQueue 	rcvdPk:sum(packetBytes) 	0
attr interpolationmode  none
attr title  "received packets, sum(packetBytes)"
scalar SubstationSidhu2007.T1.breaker[1].queue.dataQueue 	queueLength:max 	0
attr interpolationmode  sample-hold
attr title  "queue length, max"
scalar SubstationSidhu2007.T1.breaker[1].queue.dataQueue 	queueLength:timeavg 	-nan
attr interpolationmode  sample-hold
attr title  "queue length, timeavg"
statistic SubstationSidhu2007.T1.breaker[1].queue.dataQueue 	queueingTime:histogram
field count 0
field mean 0
field stddev -nan
field sum 0
field sqrsum 0
field min 0
field max 0
attr interpolationmode  none
attr title  "queueing time, histogram"
bin	-INF	0
bin	-0.5	0
bin	-0.46666666666667	0
bin	-0.43333333333333	0
bin	-0.4	0
bin	-0.36666666666667	0
bin	-0.33333333333333	0
bin	-0.3	0
bin	-0.26666666666667	0
bin	-0.23333333333333	0
bin	-0.2	0
bin	-0.16666666666667	0
bin	-0.13333333333333	0
bin	-0.1	0
bin	-0.066666666666667	0
bin	-0.033333333333333	0
bin	-6.9388939039072e-18	0
bin	0.033333333333333	0
bin	0.066666666666667	0
bin	0.1	0
bin	0.13333333333333	0
bin	0.16666666666667	0
bin	0.2	0
bin	0.23333333333333	0
bin	0.26666666666667	0
bin	0.3	0
bin	0.33333333333333	0
bin	0.36666666666667	0
bin	0.4	0
bin	0.43333333333333	0
bin	0.46666666666667	0
bin	0.5	0
scalar SubstationSidhu2007.T1.breaker[1].queue.dataQueue 	dropPk:count 	0
attr interpolationmode  none
attr source  dropPkByQueue
attr title  "dropped packets, count"
scalar SubstationSidhu2007.T1.breaker[1].queue.dataQueue 	dropPk:sum(packetBytes) 	0
attr interpolationmode  none
attr source  dropPkByQueue
attr title  "dropped packets, sum(packetBytes)"
scalar SubstationSidhu2007.T1.breaker[1].queue.dataQueue 	rcvdPk:count 	0
attr interpolationmode  none
attr title  "received packets, count"
scalar SubstationSidhu2007.T1.breaker[1].queue.dataQueue 	rcvdPk:sum(packetBytes) 	0
attr interpolationmode  none
attr title  "received packets, sum(packetBytes)"
scalar SubstationSidhu2007.T1.breaker[1].mac 	"simulated time" 	0
scalar SubstationSidhu2007.T1.breaker[1].mac 	full-duplex 	1
scalar SubstationSidhu2007.T1.breaker[1].mac 	"rx channel idle (%)" 	-nan
scalar SubstationSidhu2007.T1.breaker[1].mac 	"rx channel utilization (%)" 	-nan
scalar SubstationSidhu2007.T1.breaker[1].mac 	"rx channel collision (%)" 	-nan
scalar SubstationSidhu2007.T1.breaker[1].mac 	collisions 	0
scalar SubstationSidhu2007.T1.breaker[1].mac 	backoffs 	0
scalar SubstationSidhu2007.T1.breaker[1].mac 	backoff:count 	0
attr interpolationmode  none
attr title  "backoff, count"
scalar SubstationSidhu2007.T1.breaker[1].mac 	collision:count 	0
attr interpolationmode  none
attr title  "collision, count"
scalar SubstationSidhu2007.T1.breaker[1].mac 	droppedPkNotForUs:count 	0
attr interpolationmode  none
attr source  dropPkNotForUs
attr title  "packets dropped/not for us, count"
scalar SubstationSidhu2007.T1.breaker[1].mac 	droppedPkNotForUs:sum(packetBytes) 	0
attr interpolationmode  none
attr source  dropPkNotForUs
attr title  "packets dropped/not for us, sum(packetBytes)"
scalar SubstationSidhu2007.T1.breaker[1].mac 	droppedPkBitError:count 	0
attr interpolationmode  none
attr source  dropPkBitError
attr title  "packets dropped/bit error, count"
scalar SubstationSidhu2007.T1.breaker[1].mac 	droppedPkBitError:sum(packetBytes) 	0
attr interpolationmode  none
attr source  dropPkBitError
attr title  "packets dropped/bit error, sum(packetBytes)"
scalar SubstationSidhu2007.T1.breaker[1].mac 	droppedPkIfaceDown:count 	0
attr interpolationmode  none
attr source  dropPkIfaceDown
attr title  "packets dropped/interface down, count"
scalar SubstationSidhu2007.T1.breaker[1].mac 	droppedPkIfaceDown:sum(packetBytes) 	0
attr interpolationmode  none
attr source  dropPkIfaceDown
attr title  "packets dropped/interface down, sum(packetBytes)"
scalar SubstationSidhu2007.T1.breaker[1].mac 	rxPkFromHL:count 	0
attr interpolationmode  none
attr source  rxPkFromHL
attr title  "packet bytes from higher layer, count"
scalar SubstationSidhu2007.T1.breaker[1].mac 	rxPkFromHL:sum(packetBytes) 	0
attr interpolationmode  none
attr source  rxPkFromHL
attr title  "packet bytes from higher layer, sum(packetBytes)"
scalar SubstationSidhu2007.T1.breaker[1].mac 	rxPausePkUnits:count 	0
attr interpolationmode  none
attr title  "pause units received, count"
scalar SubstationSidhu2007.T1.breaker[1].mac 	rxPausePkUnits:sum 	0
attr interpolationmode  none
attr title  "pause units received, sum"
scalar SubstationSidhu2007.T1.breaker[1].mac 	txPausePkUnits:count 	0
attr interpolationmode  none
attr title  "pause units sent, count"
scalar SubstationSidhu2007.T1.breaker[1].mac 	txPausePkUnits:sum 	0
attr interpolationmode  none
attr title  "pause units sent, sum"
scalar SubstationSidhu2007.T1.breaker[1].mac 	passedUpPk:count 	0
attr interpolationmode  none
attr source  packetSentToUpper
attr title  "packets passed to higher layer, count"
scalar SubstationSidhu2007.T1.breaker[1].mac 	passedUpPk:sum(packetBytes) 	0
attr interpolationmode  none
attr source  packetSentToUpper
attr title  "packets passed to higher layer, sum(packetBytes)"
scalar SubstationSidhu2007.T1.breaker[1].mac 	rxPkOk:count 	0
attr interpolationmode  none
attr source  rxPkOk
attr title  "packets received OK, count"
scalar SubstationSidhu2007.T1.breaker[1].mac 	rxPkOk:sum(packetBytes) 	0
attr interpolationmode  none
attr source  rxPkOk
attr title  "packets received OK, sum(packetBytes)"
scalar SubstationSidhu2007.T1.breaker[1].mac 	txPk:count 	0
attr interpolationmode  none
attr source  txPk
attr title  "packets transmitted, count"
scalar SubstationSidhu2007.T1.breaker[1].mac 	txPk:sum(packetBytes) 	0
attr interpolationmode  none
attr source  txPk
attr title  "packets transmitted, sum(packetBytes)"
scalar SubstationSidhu2007.T1.breaker[1].encap 	pauseSent:count 	0
attr title  "pause sent, count"
scalar SubstationSidhu2007.T1.breaker[1].encap 	pauseSent:sum 	0
attr title  "pause sent, sum"
scalar SubstationSidhu2007.T1.breaker[1].encap 	decapPk:count 	0
attr interpolationmode  none
attr source  decapPk
attr title  "packets decapsulated, count"
scalar SubstationSidhu2007.T1.breaker[1].encap 	decapPk:sum(packetBytes) 	0
attr interpolationmode  none
attr source  decapPk
attr title  "packets decapsulated, sum(packetBytes)"
scalar SubstationSidhu2007.T1.breaker[1].encap 	encapPk:count 	0
attr interpolationmode  none
attr source  encapPk
attr title  "packets encapsulated, count"
scalar SubstationSidhu2007.T1.breaker[1].encap 	encapPk:sum(packetBytes) 	0
attr interpolationmode  none
attr source  encapPk
attr title  "packets encapsulated, sum(packetBytes)"
scalar SubstationSidhu2007.T1.breaker[1].networkLayer.arp 	failedResolution:count 	0
attr title  "ARP failed resolutions, count"
scalar SubstationSidhu2007.T1.breaker[1].networkLayer.arp 	initiatedResolution:count 	0
attr title  "ARP initiated resolutions, count"
scalar SubstationSidhu2007.T1.breaker[1].networkLayer.arp 	sentReplies:count 	0
attr title  "ARP replies sent, count"
scalar SubstationSidhu2007.T1.breaker[1].networkLayer.arp 	sentReq:count 	0
attr title  "ARP request sent, count"
statistic SubstationSidhu2007.T1.breaker[1].iec61850trafgen 	eteTrip1A:histogram
field count 0
field mean 0
field stddev -nan
field sum 0
field sqrsum 0
field min 0
field max 0
attr interpolationmode  none
attr source  messageAge(rcvdTrip1A)
attr title  "eteTrip1A, histogram"
attr unit  s
bin	-INF	0
bin	-0.5	0
bin	-0.46666666666667	0
bin	-0.43333333333333	0
bin	-0.4	0
bin	-0.36666666666667	0
bin	-0.33333333333333	0
bin	-0.3	0
bin	-0.26666666666667	0
bin	-0.23333333333333	0
bin	-0.2	0
bin	-0.16666666666667	0
bin	-0.13333333333333	0
bin	-0.1	0
bin	-0.066666666666667	0
bin	-0.033333333333333	0
bin	-6.9388939039072e-18	0
bin	0.033333333333333	0
bin	0.066666666666667	0
bin	0.1	0
bin	0.13333333333333	0
bin	0.16666666666667	0
bin	0.2	0
bin	0.23333333333333	0
bin	0.26666666666667	0
bin	0.3	0
bin	0.33333333333333	0
bin	0.36666666666667	0
bin	0.4	0
bin	0.43333333333333	0
bin	0.46666666666667	0
bin	0.5	0
scalar SubstationSidhu2007.T1.breaker[1].iec61850trafgen 	sentPk:count 	0
attr interpolationmode  none
attr source  sentPk
attr title  "packets sent, count"
scalar SubstationSidhu2007.T1.breaker[1].iec61850trafgen 	sentPk:sum(packetBytes) 	0
attr interpolationmode  none
attr source  sentPk
attr title  "packets sent, sum(packetBytes)"
scalar SubstationSidhu2007.T1.breaker[1].iec61850trafgen 	rcvdPk:count 	0
attr interpolationmode  none
attr source  rcvdPk
attr title  "packets received, count"
scalar SubstationSidhu2007.T1.breaker[1].iec61850trafgen 	rcvdPk:sum(packetBytes) 	0
attr interpolationmode  none
attr source  rcvdPk
attr title  "packets received, sum(packetBytes)"
statistic SubstationSidhu2007.T1.breaker[1].iec61850trafgen 	endToEndDelay:histogram
field count 0
field mean 0
field stddev -nan
field sum 0
field sqrsum 0
field min 0
field max 0
attr interpolationmode  none
attr source  messageAge(rcvdPk)
attr title  "end-to-end delay, histogram"
attr unit  s
bin	-INF	0
bin	-0.5	0
bin	-0.46666666666667	0
bin	-0.43333333333333	0
bin	-0.4	0
bin	-0.36666666666667	0
bin	-0.33333333333333	0
bin	-0.3	0
bin	-0.26666666666667	0
bin	-0.23333333333333	0
bin	-0.2	0
bin	-0.16666666666667	0
bin	-0.13333333333333	0
bin	-0.1	0
bin	-0.066666666666667	0
bin	-0.033333333333333	0
bin	-6.9388939039072e-18	0
bin	0.033333333333333	0
bin	0.066666666666667	0
bin	0.1	0
bin	0.13333333333333	0
bin	0.16666666666667	0
bin	0.2	0
bin	0.23333333333333	0
bin	0.26666666666667	0
bin	0.3	0
bin	0.33333333333333	0
bin	0.36666666666667	0
bin	0.4	0
bin	0.43333333333333	0
bin	0.46666666666667	0
bin	0.5	0
scalar SubstationSidhu2007.T1.breaker[1].mms 	numActiveSessions:max 	-nan
attr interpolationmode  sample-hold
attr source  sum(connect)
attr title  "number of active sessions, max"
scalar SubstationSidhu2007.T1.breaker[1].mms 	numActiveSessions:timeavg 	-nan
attr interpolationmode  sample-hold
attr source  sum(connect)
attr title  "number of active sessions, timeavg"
scalar SubstationSidhu2007.T1.breaker[1].mms 	numSessions:last 	-nan
attr source  sum(connect+1)/2
attr title  "total number of sessions, last"
scalar SubstationSidhu2007.T1.breaker[1].mms 	sentPk:count 	0
attr interpolationmode  none
attr source  sentPk
attr title  "packets sent, count"
scalar SubstationSidhu2007.T1.breaker[1].mms 	sentPk:sum(packetBytes) 	0
attr interpolationmode  none
attr source  sentPk
attr title  "packets sent, sum(packetBytes)"
scalar SubstationSidhu2007.T1.breaker[1].mms 	rcvdPk:count 	0
attr interpolationmode  none
attr source  rcvdPk
attr title  "packets received, count"
scalar SubstationSidhu2007.T1.breaker[1].mms 	rcvdPk:sum(packetBytes) 	0
attr interpolationmode  none
attr source  rcvdPk
attr title  "packets received, sum(packetBytes)"
statistic SubstationSidhu2007.T1.breaker[1].mms 	endToEndDelay:histogram
field count 0
field mean 0
field stddev -nan
field sum 0
field sqrsum 0
field min 0
field max 0
attr interpolationmode  none
attr source  messageAge(rcvdPk)
attr title  "end-to-end delay, histogram"
attr unit  s
bin	-INF	0
bin	-0.5	0
bin	-0.46666666666667	0
bin	-0.43333333333333	0
bin	-0.4	0
bin	-0.36666666666667	0
bin	-0.33333333333333	0
bin	-0.3	0
bin	-0.26666666666667	0
bin	-0.23333333333333	0
bin	-0.2	0
bin	-0.16666666666667	0
bin	-0.13333333333333	0
bin	-0.1	0
bin	-0.066666666666667	0
bin	-0.033333333333333	0
bin	-6.9388939039072e-18	0
bin	0.033333333333333	0
bin	0.066666666666667	0
bin	0.1	0
bin	0.13333333333333	0
bin	0.16666666666667	0
bin	0.2	0
bin	0.23333333333333	0
bin	0.26666666666667	0
bin	0.3	0
bin	0.33333333333333	0
bin	0.36666666666667	0
bin	0.4	0
bin	0.43333333333333	0
bin	0.46666666666667	0
bin	0.5	0
scalar SubstationSidhu2007.T1.breaker[1].IPburst 	sentPk:count 	0
attr interpolationmode  none
attr source  sentPk
attr title  "packets sent, count"
scalar SubstationSidhu2007.T1.breaker[1].IPburst 	sentPk:sum(packetBytes) 	0
attr interpolationmode  none
attr source  sentPk
attr title  "packets sent, sum(packetBytes)"
scalar SubstationSidhu2007.T1.breaker[1].IPburst 	rcvdPk:count 	0
attr interpolationmode  none
attr source  rcvdPk
attr title  "packets received, count"
scalar SubstationSidhu2007.T1.breaker[1].IPburst 	rcvdPk:sum(packetBytes) 	0
attr interpolationmode  none
attr source  rcvdPk
attr title  "packets received, sum(packetBytes)"
statistic SubstationSidhu2007.T1.breaker[1].IPburst 	endToEndDelay:histogram
field count 0
field mean 0
field stddev -nan
field sum 0
field sqrsum 0
field min 0
field max 0
attr interpolationmode  none
attr source  messageAge(rcvdPk)
attr title  "end-to-end delay, histogram"
attr unit  s
bin	-INF	0
bin	-0.5	0
bin	-0.46666666666667	0
bin	-0.43333333333333	0
bin	-0.4	0
bin	-0.36666666666667	0
bin	-0.33333333333333	0
bin	-0.3	0
bin	-0.26666666666667	0
bin	-0.23333333333333	0
bin	-0.2	0
bin	-0.16666666666667	0
bin	-0.13333333333333	0
bin	-0.1	0
bin	-0.066666666666667	0
bin	-0.033333333333333	0
bin	-6.9388939039072e-18	0
bin	0.033333333333333	0
bin	0.066666666666667	0
bin	0.1	0
bin	0.13333333333333	0
bin	0.16666666666667	0
bin	0.2	0
bin	0.23333333333333	0
bin	0.26666666666667	0
bin	0.3	0
bin	0.33333333333333	0
bin	0.36666666666667	0
bin	0.4	0
bin	0.43333333333333	0
bin	0.46666666666667	0
bin	0.5	0
scalar SubstationSidhu2007.T1.control[0].queue.pauseQueue 	queueLength:max 	0
attr interpolationmode  sample-hold
attr title  "queue length, max"
scalar SubstationSidhu2007.T1.control[0].queue.pauseQueue 	queueLength:timeavg 	-nan
attr interpolationmode  sample-hold
attr title  "queue length, timeavg"
statistic SubstationSidhu2007.T1.control[0].queue.pauseQueue 	queueingTime:histogram
field count 0
field mean 0
field stddev -nan
field sum 0
field sqrsum 0
field min 0
field max 0
attr interpolationmode  none
attr title  "queueing time, histogram"
bin	-INF	0
bin	-0.5	0
bin	-0.46666666666667	0
bin	-0.43333333333333	0
bin	-0.4	0
bin	-0.36666666666667	0
bin	-0.33333333333333	0
bin	-0.3	0
bin	-0.26666666666667	0
bin	-0.23333333333333	0
bin	-0.2	0
bin	-0.16666666666667	0
bin	-0.13333333333333	0
bin	-0.1	0
bin	-0.066666666666667	0
bin	-0.033333333333333	0
bin	-6.9388939039072e-18	0
bin	0.033333333333333	0
bin	0.066666666666667	0
bin	0.1	0
bin	0.13333333333333	0
bin	0.16666666666667	0
bin	0.2	0
bin	0.23333333333333	0
bin	0.26666666666667	0
bin	0.3	0
bin	0.33333333333333	0
bin	0.36666666666667	0
bin	0.4	0
bin	0.43333333333333	0
bin	0.46666666666667	0
bin	0.5	0
scalar SubstationSidhu2007.T1.control[0].queue.pauseQueue 	dropPk:count 	0
attr interpolationmode  none
attr source  dropPkByQueue
attr title  "dropped packets, count"
scalar SubstationSidhu2007.T1.control[0].queue.pauseQueue 	dropPk:sum(packetBytes) 	0
attr interpolationmode  none
attr source  dropPkByQueue
attr title  "dropped packets, sum(packetBytes)"
scalar SubstationSidhu2007.T1.control[0].queue.pauseQueue 	rcvdPk:count 	0
attr interpolationmode  none
attr title  "received packets, count"
scalar SubstationSidhu2007.T1.control[0].queue.pauseQueue 	rcvdPk:sum(packetBytes) 	0
attr interpolationmode  none
attr title  "received packets, sum(packetBytes)"
scalar SubstationSidhu2007.T1.control[0].queue.dataQueue 	queueLength:max 	0
attr interpolationmode  sample-hold
attr title  "queue length, max"
scalar SubstationSidhu2007.T1.control[0].queue.dataQueue 	queueLength:timeavg 	-nan
attr interpolationmode  sample-hold
attr title  "queue length, timeavg"
statistic SubstationSidhu2007.T1.control[0].queue.dataQueue 	queueingTime:histogram
field count 0
field mean 0
field stddev -nan
field sum 0
field sqrsum 0
field min 0
field max 0
attr interpolationmode  none
attr title  "queueing time, histogram"
bin	-INF	0
bin	-0.5	0
bin	-0.46666666666667	0
bin	-0.43333333333333	0
bin	-0.4	0
bin	-0.36666666666667	0
bin	-0.33333333333333	0
bin	-0.3	0
bin	-0.26666666666667	0
bin	-0.23333333333333	0
bin	-0.2	0
bin	-0.16666666666667	0
bin	-0.13333333333333	0
bin	-0.1	0
bin	-0.066666666666667	0
bin	-0.033333333333333	0
bin	-6.9388939039072e-18	0
bin	0.033333333333333	0
bin	0.066666666666667	0
bin	0.1	0
bin	0.13333333333333	0
bin	0.16666666666667	0
bin	0.2	0
bin	0.23333333333333	0
bin	0.26666666666667	0
bin	0.3	0
bin	0.33333333333333	0
bin	0.36666666666667	0
bin	0.4	0
bin	0.43333333333333	0
bin	0.46666666666667	0
bin	0.5	0
scalar SubstationSidhu2007.T1.control[0].queue.dataQueue 	dropPk:count 	0
attr interpolationmode  none
attr source  dropPkByQueue
attr title  "dropped packets, count"
scalar SubstationSidhu2007.T1.control[0].queue.dataQueue 	dropPk:sum(packetBytes) 	0
attr interpolationmode  none
attr source  dropPkByQueue
attr title  "dropped packets, sum(packetBytes)"
scalar SubstationSidhu2007.T1.control[0].queue.dataQueue 	rcvdPk:count 	0
attr interpolationmode  none
attr title  "received packets, count"
scalar SubstationSidhu2007.T1.control[0].queue.dataQueue 	rcvdPk:sum(packetBytes) 	0
attr interpolationmode  none
attr title  "received packets, sum(packetBytes)"
scalar SubstationSidhu2007.T1.control[0].mac 	"simulated time" 	0
scalar SubstationSidhu2007.T1.control[0].mac 	full-duplex 	1
scalar SubstationSidhu2007.T1.control[0].mac 	"rx channel idle (%)" 	-nan
scalar SubstationSidhu2007.T1.control[0].mac 	"rx channel utilization (%)" 	-nan
scalar SubstationSidhu2007.T1.control[0].mac 	"rx channel collision (%)" 	-nan
scalar SubstationSidhu2007.T1.control[0].mac 	collisions 	0
scalar SubstationSidhu2007.T1.control[0].mac 	backoffs 	0
scalar SubstationSidhu2007.T1.control[0].mac 	backoff:count 	0
attr interpolationmode  none
attr title  "backoff, count"
scalar SubstationSidhu2007.T1.control[0].mac 	collision:count 	0
attr interpolationmode  none
attr title  "collision, count"
scalar SubstationSidhu2007.T1.control[0].mac 	droppedPkNotForUs:count 	0
attr interpolationmode  none
attr source  dropPkNotForUs
attr title  "packets dropped/not for us, count"
scalar SubstationSidhu2007.T1.control[0].mac 	droppedPkNotForUs:sum(packetBytes) 	0
attr interpolationmode  none
attr source  dropPkNotForUs
attr title  "packets dropped/not for us, sum(packetBytes)"
scalar SubstationSidhu2007.T1.control[0].mac 	droppedPkBitError:count 	0
attr interpolationmode  none
attr source  dropPkBitError
attr title  "packets dropped/bit error, count"
scalar SubstationSidhu2007.T1.control[0].mac 	droppedPkBitError:sum(packetBytes) 	0
attr interpolationmode  none
attr source  dropPkBitError
attr title  "packets dropped/bit error, sum(packetBytes)"
scalar SubstationSidhu2007.T1.control[0].mac 	droppedPkIfaceDown:count 	0
attr interpolationmode  none
attr source  dropPkIfaceDown
attr title  "packets dropped/interface down, count"
scalar SubstationSidhu2007.T1.control[0].mac 	droppedPkIfaceDown:sum(packetBytes) 	0
attr interpolationmode  none
attr source  dropPkIfaceDown
attr title  "packets dropped/interface down, sum(packetBytes)"
scalar SubstationSidhu2007.T1.control[0].mac 	rxPkFromHL:count 	0
attr interpolationmode  none
attr source  rxPkFromHL
attr title  "packet bytes from higher layer, count"
scalar SubstationSidhu2007.T1.control[0].mac 	rxPkFromHL:sum(packetBytes) 	0
attr interpolationmode  none
attr source  rxPkFromHL
attr title  "packet bytes from higher layer, sum(packetBytes)"
scalar SubstationSidhu2007.T1.control[0].mac 	rxPausePkUnits:count 	0
attr interpolationmode  none
attr title  "pause units received, count"
scalar SubstationSidhu2007.T1.control[0].mac 	rxPausePkUnits:sum 	0
attr interpolationmode  none
attr title  "pause units received, sum"
scalar SubstationSidhu2007.T1.control[0].mac 	txPausePkUnits:count 	0
attr interpolationmode  none
attr title  "pause units sent, count"
scalar SubstationSidhu2007.T1.control[0].mac 	txPausePkUnits:sum 	0
attr interpolationmode  none
attr title  "pause units sent, sum"
scalar SubstationSidhu2007.T1.control[0].mac 	passedUpPk:count 	0
attr interpolationmode  none
attr source  packetSentToUpper
attr title  "packets passed to higher layer, count"
scalar SubstationSidhu2007.T1.control[0].mac 	passedUpPk:sum(packetBytes) 	0
attr interpolationmode  none
attr source  packetSentToUpper
attr title  "packets passed to higher layer, sum(packetBytes)"
scalar SubstationSidhu2007.T1.control[0].mac 	rxPkOk:count 	0
attr interpolationmode  none
attr source  rxPkOk
attr title  "packets received OK, count"
scalar SubstationSidhu2007.T1.control[0].mac 	rxPkOk:sum(packetBytes) 	0
attr interpolationmode  none
attr source  rxPkOk
attr title  "packets received OK, sum(packetBytes)"
scalar SubstationSidhu2007.T1.control[0].mac 	txPk:count 	0
attr interpolationmode  none
attr source  txPk
attr title  "packets transmitted, count"
scalar SubstationSidhu2007.T1.control[0].mac 	txPk:sum(packetBytes) 	0
attr interpolationmode  none
attr source  txPk
attr title  "packets transmitted, sum(packetBytes)"
scalar SubstationSidhu2007.T1.control[0].encap 	pauseSent:count 	0
attr title  "pause sent, count"
scalar SubstationSidhu2007.T1.control[0].encap 	pauseSent:sum 	0
attr title  "pause sent, sum"
scalar SubstationSidhu2007.T1.control[0].encap 	decapPk:count 	0
attr interpolationmode  none
attr source  decapPk
attr title  "packets decapsulated, count"
scalar SubstationSidhu2007.T1.control[0].encap 	decapPk:sum(packetBytes) 	0
attr interpolationmode  none
attr source  decapPk
attr title  "packets decapsulated, sum(packetBytes)"
scalar SubstationSidhu2007.T1.control[0].encap 	encapPk:count 	0
attr interpolationmode  none
attr source  encapPk
attr title  "packets encapsulated, count"
scalar SubstationSidhu2007.T1.control[0].encap 	encapPk:sum(packetBytes) 	0
attr interpolationmode  none
attr source  encapPk
attr title  "packets encapsulated, sum(packetBytes)"
scalar SubstationSidhu2007.T1.control[0].networkLayer.arp 	failedResolution:count 	0
attr title  "ARP failed resolutions, count"
scalar SubstationSidhu2007.T1.control[0].networkLayer.arp 	initiatedResolution:count 	0
attr title  "ARP initiated resolutions, count"
scalar SubstationSidhu2007.T1.control[0].networkLayer.arp 	sentReplies:count 	0
attr title  "ARP replies sent, count"
scalar SubstationSidhu2007.T1.control[0].networkLayer.arp 	sentReq:count 	0
attr title  "ARP request sent, count"
statistic SubstationSidhu2007.T1.control[0].iec61850trafgen 	eteTrip1A:histogram
field count 0
field mean 0
field stddev -nan
field sum 0
field sqrsum 0
field min 0
field max 0
attr interpolationmode  none
attr source  messageAge(rcvdTrip1A)
attr title  "eteTrip1A, histogram"
attr unit  s
bin	-INF	0
bin	-0.5	0
bin	-0.46666666666667	0
bin	-0.43333333333333	0
bin	-0.4	0
bin	-0.36666666666667	0
bin	-0.33333333333333	0
bin	-0.3	0
bin	-0.26666666666667	0
bin	-0.23333333333333	0
bin	-0.2	0
bin	-0.16666666666667	0
bin	-0.13333333333333	0
bin	-0.1	0
bin	-0.066666666666667	0
bin	-0.033333333333333	0
bin	-6.9388939039072e-18	0
bin	0.033333333333333	0
bin	0.066666666666667	0
bin	0.1	0
bin	0.13333333333333	0
bin	0.16666666666667	0
bin	0.2	0
bin	0.23333333333333	0
bin	0.26666666666667	0
bin	0.3	0
bin	0.33333333333333	0
bin	0.36666666666667	0
bin	0.4	0
bin	0.43333333333333	0
bin	0.46666666666667	0
bin	0.5	0
scalar SubstationSidhu2007.T1.control[0].iec61850trafgen 	sentPk:count 	0
attr interpolationmode  none
attr source  sentPk
attr title  "packets sent, count"
scalar SubstationSidhu2007.T1.control[0].iec61850trafgen 	sentPk:sum(packetBytes) 	0
attr interpolationmode  none
attr source  sentPk
attr title  "packets sent, sum(packetBytes)"
scalar SubstationSidhu2007.T1.control[0].iec61850trafgen 	rcvdPk:count 	0
attr interpolationmode  none
attr source  rcvdPk
attr title  "packets received, count"
scalar SubstationSidhu2007.T1.control[0].iec61850trafgen 	rcvdPk:sum(packetBytes) 	0
attr interpolationmode  none
attr source  rcvdPk
attr title  "packets received, sum(packetBytes)"
statistic SubstationSidhu2007.T1.control[0].iec61850trafgen 	endToEndDelay:histogram
field count 0
field mean 0
field stddev -nan
field sum 0
field sqrsum 0
field min 0
field max 0
attr interpolationmode  none
attr source  messageAge(rcvdPk)
attr title  "end-to-end delay, histogram"
attr unit  s
bin	-INF	0
bin	-0.5	0
bin	-0.46666666666667	0
bin	-0.43333333333333	0
bin	-0.4	0
[...]
attr interpolationmode  sample-hold
attr title  "queue length, timeavg"
statistic SubstationSidhu2007.server.queue.p5 	queueingTime:histogram
field count 0
field mean 0
field stddev -nan
field sum 0
field sqrsum 0
field min 0
field max 0
attr interpolationmode  none
attr title  "queueing time, histogram"
bin	-INF	0
bin	-0.5	0
bin	-0.46666666666667	0
bin	-0.43333333333333	0
bin	-0.4	0
bin	-0.36666666666667	0
bin	-0.33333333333333	0
bin	-0.3	0
bin	-0.26666666666667	0
bin	-0.23333333333333	0
bin	-0.2	0
bin	-0.16666666666667	0
bin	-0.13333333333333	0
bin	-0.1	0
bin	-0.066666666666667	0
bin	-0.033333333333333	0
bin	-6.9388939039072e-18	0
bin	0.033333333333333	0
bin	0.066666666666667	0
bin	0.1	0
bin	0.13333333333333	0
bin	0.16666666666667	0
bin	0.2	0
bin	0.23333333333333	0
bin	0.26666666666667	0
bin	0.3	0
bin	0.33333333333333	0
bin	0.36666666666667	0
bin	0.4	0
bin	0.43333333333333	0
bin	0.46666666666667	0
bin	0.5	0
scalar SubstationSidhu2007.server.queue.p5 	dropPk:count 	0
attr interpolationmode  none
attr source  dropPkByQueue
attr title  "dropped packets, count"
scalar SubstationSidhu2007.server.queue.p5 	dropPk:sum(packetBytes) 	0
attr interpolationmode  none
attr source  dropPkByQueue
attr title  "dropped packets, sum(packetBytes)"
scalar SubstationSidhu2007.server.queue.p5 	rcvdPk:count 	0
attr interpolationmode  none
attr title  "received packets, count"
scalar SubstationSidhu2007.server.queue.p5 	rcvdPk:sum(packetBytes) 	0
attr interpolationmode  none
attr title  "received packets, sum(packetBytes)"
scalar SubstationSidhu2007.server.queue.p4 	queueLength:max 	0
attr interpolationmode  sample-hold
attr title  "queue length, max"
scalar SubstationSidhu2007.server.queue.p4 	queueLength:timeavg 	-nan
attr interpolationmode  sample-hold
attr title  "queue length, timeavg"
statistic SubstationSidhu2007.server.queue.p4 	queueingTime:histogram
field count 0
field mean 0
field stddev -nan
field sum 0
field sqrsum 0
field min 0
field max 0
attr interpolationmode  none
attr title  "queueing time, histogram"
bin	-INF	0
bin	-0.5	0
bin	-0.46666666666667	0
bin	-0.43333333333333	0
bin	-0.4	0
bin	-0.36666666666667	0
bin	-0.33333333333333	0
bin	-0.3	0
bin	-0.26666666666667	0
bin	-0.23333333333333	0
bin	-0.2	0
bin	-0.16666666666667	0
bin	-0.13333333333333	0
bin	-0.1	0
bin	-0.066666666666667	0
bin	-0.033333333333333	0
bin	-6.9388939039072e-18	0
bin	0.033333333333333	0
bin	0.066666666666667	0
bin	0.1	0
bin	0.13333333333333	0
bin	0.16666666666667	0
bin	0.2	0
bin	0.23333333333333	0
bin	0.26666666666667	0
bin	0.3	0
bin	0.33333333333333	0
bin	0.36666666666667	0
bin	0.4	0
bin	0.43333333333333	0
bin	0.46666666666667	0
bin	0.5	0
scalar SubstationSidhu2007.server.queue.p4 	dropPk:count 	0
attr interpolationmode  none
attr source  dropPkByQueue
attr title  "dropped packets, count"
scalar SubstationSidhu2007.server.queue.p4 	dropPk:sum(packetBytes) 	0
attr interpolationmode  none
attr source  dropPkByQueue
attr title  "dropped packets, sum(packetBytes)"
scalar SubstationSidhu2007.server.queue.p4 	rcvdPk:count 	0
attr interpolationmode  none
attr title  "received packets, count"
scalar SubstationSidhu2007.server.queue.p4 	rcvdPk:sum(packetBytes) 	0
attr interpolationmode  none
attr title  "received packets, sum(packetBytes)"
scalar SubstationSidhu2007.server.queue.p3 	queueLength:max 	0
attr interpolationmode  sample-hold
attr title  "queue length, max"
scalar SubstationSidhu2007.server.queue.p3 	queueLength:timeavg 	-nan
attr interpolationmode  sample-hold
attr title  "queue length, timeavg"
statistic SubstationSidhu2007.server.queue.p3 	queueingTime:histogram
field count 0
field mean 0
field stddev -nan
field sum 0
field sqrsum 0
field min 0
field max 0
attr interpolationmode  none
attr title  "queueing time, histogram"
bin	-INF	0
bin	-0.5	0
bin	-0.46666666666667	0
bin	-0.43333333333333	0
bin	-0.4	0
bin	-0.36666666666667	0
bin	-0.33333333333333	0
bin	-0.3	0
bin	-0.26666666666667	0
bin	-0.23333333333333	0
bin	-0.2	0
bin	-0.16666666666667	0
bin	-0.13333333333333	0
bin	-0.1	0
bin	-0.066666666666667	0
bin	-0.033333333333333	0
bin	-6.9388939039072e-18	0
bin	0.033333333333333	0
bin	0.066666666666667	0
bin	0.1	0
bin	0.13333333333333	0
bin	0.16666666666667	0
bin	0.2	0
bin	0.23333333333333	0
bin	0.26666666666667	0
bin	0.3	0
bin	0.33333333333333	0
bin	0.36666666666667	0
bin	0.4	0
bin	0.43333333333333	0
bin	0.46666666666667	0
bin	0.5	0
scalar SubstationSidhu2007.server.queue.p3 	dropPk:count 	0
attr interpolationmode  none
attr source  dropPkByQueue
attr title  "dropped packets, count"
scalar SubstationSidhu2007.server.queue.p3 	dropPk:sum(packetBytes) 	0
attr interpolationmode  none
attr source  dropPkByQueue
attr title  "dropped packets, sum(packetBytes)"
scalar SubstationSidhu2007.server.queue.p3 	rcvdPk:count 	0
attr interpolationmode  none
attr title  "received packets, count"
scalar SubstationSidhu2007.server.queue.p3 	rcvdPk:sum(packetBytes) 	0
attr interpolationmode  none
attr title  "received packets, sum(packetBytes)"
scalar SubstationSidhu2007.server.queue.p2 	queueLength:max 	0
attr interpolationmode  sample-hold
attr title  "queue length, max"
scalar SubstationSidhu2007.server.queue.p2 	queueLength:timeavg 	-nan
attr interpolationmode  sample-hold
attr title  "queue length, timeavg"
statistic SubstationSidhu2007.server.queue.p2 	queueingTime:histogram
field count 0
field mean 0
field stddev -nan
field sum 0
field sqrsum 0
field min 0
field max 0
attr interpolationmode  none
attr title  "queueing time, histogram"
bin	-INF	0
bin	-0.5	0
bin	-0.46666666666667	0
bin	-0.43333333333333	0
bin	-0.4	0
bin	-0.36666666666667	0
bin	-0.33333333333333	0
bin	-0.3	0
bin	-0.26666666666667	0
bin	-0.23333333333333	0
bin	-0.2	0
bin	-0.16666666666667	0
bin	-0.13333333333333	0
bin	-0.1	0
bin	-0.066666666666667	0
bin	-0.033333333333333	0
bin	-6.9388939039072e-18	0
bin	0.033333333333333	0
bin	0.066666666666667	0
bin	0.1	0
bin	0.13333333333333	0
bin	0.16666666666667	0
bin	0.2	0
bin	0.23333333333333	0
bin	0.26666666666667	0
bin	0.3	0
bin	0.33333333333333	0
bin	0.36666666666667	0
bin	0.4	0
bin	0.43333333333333	0
bin	0.46666666666667	0
bin	0.5	0
scalar SubstationSidhu2007.server.queue.p2 	dropPk:count 	0
attr interpolationmode  none
attr source  dropPkByQueue
attr title  "dropped packets, count"
scalar SubstationSidhu2007.server.queue.p2 	dropPk:sum(packetBytes) 	0
attr interpolationmode  none
attr source  dropPkByQueue
attr title  "dropped packets, sum(packetBytes)"
scalar SubstationSidhu2007.server.queue.p2 	rcvdPk:count 	0
attr interpolationmode  none
attr title  "received packets, count"
scalar SubstationSidhu2007.server.queue.p2 	rcvdPk:sum(packetBytes) 	0
attr interpolationmode  none
attr title  "received packets, sum(packetBytes)"
scalar SubstationSidhu2007.server.queue.p1 	queueLength:max 	0
attr interpolationmode  sample-hold
attr title  "queue length, max"
scalar SubstationSidhu2007.server.queue.p1 	queueLength:timeavg 	-nan
attr interpolationmode  sample-hold
attr title  "queue length, timeavg"
statistic SubstationSidhu2007.server.queue.p1 	queueingTime:histogram
field count 0
field mean 0
field stddev -nan
field sum 0
field sqrsum 0
field min 0
field max 0
attr interpolationmode  none
attr title  "queueing time, histogram"
bin	-INF	0
bin	-0.5	0
bin	-0.46666666666667	0
bin	-0.43333333333333	0
bin	-0.4	0
bin	-0.36666666666667	0
bin	-0.33333333333333	0
bin	-0.3	0
bin	-0.26666666666667	0
bin	-0.23333333333333	0
bin	-0.2	0
bin	-0.16666666666667	0
bin	-0.13333333333333	0
bin	-0.1	0
bin	-0.066666666666667	0
bin	-0.033333333333333	0
bin	-6.9388939039072e-18	0
bin	0.033333333333333	0
bin	0.066666666666667	0
bin	0.1	0
bin	0.13333333333333	0
bin	0.16666666666667	0
bin	0.2	0
bin	0.23333333333333	0
bin	0.26666666666667	0
bin	0.3	0
bin	0.33333333333333	0
bin	0.36666666666667	0
bin	0.4	0
bin	0.43333333333333	0
bin	0.46666666666667	0
bin	0.5	0
scalar SubstationSidhu2007.server.queue.p1 	dropPk:count 	0
attr interpolationmode  none
attr source  dropPkByQueue
attr title  "dropped packets, count"
scalar SubstationSidhu2007.server.queue.p1 	dropPk:sum(packetBytes) 	0
attr interpolationmode  none
attr source  dropPkByQueue
attr title  "dropped packets, sum(packetBytes)"
scalar SubstationSidhu2007.server.queue.p1 	rcvdPk:count 	0
attr interpolationmode  none
attr title  "received packets, count"
scalar SubstationSidhu2007.server.queue.p1 	rcvdPk:sum(packetBytes) 	0
attr interpolationmode  none
attr title  "received packets, sum(packetBytes)"
scalar SubstationSidhu2007.server.queue.p0 	queueLength:max 	0
attr interpolationmode  sample-hold
attr title  "queue length, max"
scalar SubstationSidhu2007.server.queue.p0 	queueLength:timeavg 	-nan
attr interpolationmode  sample-hold
attr title  "queue length, timeavg"
statistic SubstationSidhu2007.server.queue.p0 	queueingTime:histogram
field count 0
field mean 0
field stddev -nan
field sum 0
field sqrsum 0
field min 0
field max 0
attr interpolationmode  none
attr title  "queueing time, histogram"
bin	-INF	0
bin	-0.5	0
bin	-0.46666666666667	0
bin	-0.43333333333333	0
bin	-0.4	0
bin	-0.36666666666667	0
bin	-0.33333333333333	0
bin	-0.3	0
bin	-0.26666666666667	0
bin	-0.23333333333333	0
bin	-0.2	0
bin	-0.16666666666667	0
bin	-0.13333333333333	0
bin	-0.1	0
bin	-0.066666666666667	0
bin	-0.033333333333333	0
bin	-6.9388939039072e-18	0
bin	0.033333333333333	0
bin	0.066666666666667	0
bin	0.1	0
bin	0.13333333333333	0
bin	0.16666666666667	0
bin	0.2	0
bin	0.23333333333333	0
bin	0.26666666666667	0
bin	0.3	0
bin	0.33333333333333	0
bin	0.36666666666667	0
bin	0.4	0
bin	0.43333333333333	0
bin	0.46666666666667	0
bin	0.5	0
scalar SubstationSidhu2007.server.queue.p0 	dropPk:count 	0
attr interpolationmode  none
attr source  dropPkByQueue
attr title  "dropped packets, count"
scalar SubstationSidhu2007.server.queue.p0 	dropPk:sum(packetBytes) 	0
attr interpolationmode  none
attr source  dropPkByQueue
attr title  "dropped packets, sum(packetBytes)"
scalar SubstationSidhu2007.server.queue.p0 	rcvdPk:count 	0
attr interpolationmode  none
attr title  "received packets, count"
scalar SubstationSidhu2007.server.queue.p0 	rcvdPk:sum(packetBytes) 	0
attr interpolationmode  none
attr title  "received packets, sum(packetBytes)"
scalar SubstationSidhu2007.server.mac 	"simulated time" 	0
scalar SubstationSidhu2007.server.mac 	full-duplex 	1
scalar SubstationSidhu2007.server.mac 	"rx channel idle (%)" 	-nan
scalar SubstationSidhu2007.server.mac 	"rx channel utilization (%)" 	-nan
scalar SubstationSidhu2007.server.mac 	"rx channel collision (%)" 	-nan
scalar SubstationSidhu2007.server.mac 	collisions 	0
scalar SubstationSidhu2007.server.mac 	backoffs 	0
scalar SubstationSidhu2007.server.mac 	backoff:count 	0
attr interpolationmode  none
attr title  "backoff, count"
scalar SubstationSidhu2007.server.mac 	collision:count 	0
attr interpolationmode  none
attr title  "collision, count"
scalar SubstationSidhu2007.server.mac 	droppedPkNotForUs:count 	0
attr interpolationmode  none
attr source  dropPkNotForUs
attr title  "packets dropped/not for us, count"
scalar SubstationSidhu2007.server.mac 	droppedPkNotForUs:sum(packetBytes) 	0
attr interpolationmode  none
attr source  dropPkNotForUs
attr title  "packets dropped/not for us, sum(packetBytes)"
scalar SubstationSidhu2007.server.mac 	droppedPkBitError:count 	0
attr interpolationmode  none
attr source  dropPkBitError
attr title  "packets dropped/bit error, count"
scalar SubstationSidhu2007.server.mac 	droppedPkBitError:sum(packetBytes) 	0
attr interpolationmode  none
attr source  dropPkBitError
attr title  "packets dropped/bit error, sum(packetBytes)"
scalar SubstationSidhu2007.server.mac 	droppedPkIfaceDown:count 	0
attr interpolationmode  none
attr source  dropPkIfaceDown
attr title  "packets dropped/interface down, count"
scalar SubstationSidhu2007.server.mac 	droppedPkIfaceDown:sum(packetBytes) 	0
attr interpolationmode  none
attr source  dropPkIfaceDown
attr title  "packets dropped/interface down, sum(packetBytes)"
scalar SubstationSidhu2007.server.mac 	rxPkFromHL:count 	0
attr interpolationmode  none
attr source  rxPkFromHL
attr title  "packet bytes from higher layer, count"
scalar SubstationSidhu2007.server.mac 	rxPkFromHL:sum(packetBytes) 	0
attr interpolationmode  none
attr source  rxPkFromHL
attr title  "packet bytes from higher layer, sum(packetBytes)"
scalar SubstationSidhu2007.server.mac 	rxPausePkUnits:count 	0
attr interpolationmode  none
attr title  "pause units received, count"
scalar SubstationSidhu2007.server.mac 	rxPausePkUnits:sum 	0
attr interpolationmode  none
attr title  "pause units received, sum"
scalar SubstationSidhu2007.server.mac 	txPausePkUnits:count 	0
attr interpolationmode  none
attr title  "pause units sent, count"
scalar SubstationSidhu2007.server.mac 	txPausePkUnits:sum 	0
attr interpolationmode  none
attr title  "pause units sent, sum"
scalar SubstationSidhu2007.server.mac 	passedUpPk:count 	0
attr interpolationmode  none
attr source  packetSentToUpper
attr title  "packets passed to higher layer, count"
scalar SubstationSidhu2007.server.mac 	passedUpPk:sum(packetBytes) 	0
attr interpolationmode  none
attr source  packetSentToUpper
attr title  "packets passed to higher layer, sum(packetBytes)"
scalar SubstationSidhu2007.server.mac 	rxPkOk:count 	0
attr interpolationmode  none
attr source  rxPkOk
attr title  "packets received OK, count"
scalar SubstationSidhu2007.server.mac 	rxPkOk:sum(packetBytes) 	0
attr interpolationmode  none
attr source  rxPkOk
attr title  "packets received OK, sum(packetBytes)"
scalar SubstationSidhu2007.server.mac 	txPk:count 	0
attr interpolationmode  none
attr source  txPk
attr title  "packets transmitted, count"
scalar SubstationSidhu2007.server.mac 	txPk:sum(packetBytes) 	0
attr interpolationmode  none
attr source  txPk
attr title  "packets transmitted, sum(packetBytes)"
scalar SubstationSidhu2007.server.encap 	pauseSent:count 	0
attr title  "pause sent, count"
scalar SubstationSidhu2007.server.encap 	pauseSent:sum 	0
attr title  "pause sent, sum"
scalar SubstationSidhu2007.server.encap 	decapPk:count 	0
attr interpolationmode  none
attr source  decapPk
attr title  "packets decapsulated, count"
scalar SubstationSidhu2007.server.encap 	decapPk:sum(packetBytes) 	0
attr interpolationmode  none
attr source  decapPk
attr title  "packets decapsulated, sum(packetBytes)"
scalar SubstationSidhu2007.server.encap 	encapPk:count 	0
attr interpolationmode  none
attr source  encapPk
attr title  "packets encapsulated, count"
scalar SubstationSidhu2007.server.encap 	encapPk:sum(packetBytes) 	0
attr interpolationmode  none
attr source  encapPk
attr title  "packets encapsulated, sum(packetBytes)"
scalar SubstationSidhu2007.server.networkLayer.arp 	failedResolution:count 	0
attr title  "ARP failed resolutions, count"
scalar SubstationSidhu2007.server.networkLayer.arp 	initiatedResolution:count 	0
attr title  "ARP initiated resolutions, count"
scalar SubstationSidhu2007.server.networkLayer.arp 	sentReplies:count 	0
attr title  "ARP replies sent, count"
scalar SubstationSidhu2007.server.networkLayer.arp 	sentReq:count 	0
attr title  "ARP request sent, count"
statistic SubstationSidhu2007.server.gooseApp 	eteSV:histogram
field count 0
field mean 0
field stddev -nan
field sum 0
field sqrsum 0
field min 0
field max 0
attr interpolationmode  none
attr source  messageAge(rcvdSV)
attr title  "SampledValues, histogram"
attr unit  s
bin	-INF	0
bin	-0.5	0
bin	-0.46666666666667	0
bin	-0.43333333333333	0
bin	-0.4	0
bin	-0.36666666666667	0
bin	-0.33333333333333	0
bin	-0.3	0
bin	-0.26666666666667	0
bin	-0.23333333333333	0
bin	-0.2	0
bin	-0.16666666666667	0
bin	-0.13333333333333	0
bin	-0.1	0
bin	-0.066666666666667	0
bin	-0.033333333333333	0
bin	-6.9388939039072e-18	0
bin	0.033333333333333	0
bin	0.066666666666667	0
bin	0.1	0
bin	0.13333333333333	0
bin	0.16666666666667	0
bin	0.2	0
bin	0.23333333333333	0
bin	0.26666666666667	0
bin	0.3	0
bin	0.33333333333333	0
bin	0.36666666666667	0
bin	0.4	0
bin	0.43333333333333	0
bin	0.46666666666667	0
bin	0.5	0
statistic SubstationSidhu2007.server.gooseApp 	eteGoose:histogram
field count 0
field mean 0
field stddev -nan
field sum 0
field sqrsum 0
field min 0
field max 0
attr interpolationmode  none
attr source  messageAge(rcvdGoose)
attr title  "Goose, histogram"
attr unit  s
bin	-INF	0
bin	-0.5	0
bin	-0.46666666666667	0
bin	-0.43333333333333	0
bin	-0.4	0
bin	-0.36666666666667	0
bin	-0.33333333333333	0
bin	-0.3	0
bin	-0.26666666666667	0
bin	-0.23333333333333	0
bin	-0.2	0
bin	-0.16666666666667	0
bin	-0.13333333333333	0
bin	-0.1	0
bin	-0.066666666666667	0
bin	-0.033333333333333	0
bin	-6.9388939039072e-18	0
bin	0.033333333333333	0
bin	0.066666666666667	0
bin	0.1	0
bin	0.13333333333333	0
bin	0.16666666666667	0
bin	0.2	0
bin	0.23333333333333	0
bin	0.26666666666667	0
bin	0.3	0
bin	0.33333333333333	0
bin	0.36666666666667	0
bin	0.4	0
bin	0.43333333333333	0
bin	0.46666666666667	0
bin	0.5	0
scalar SubstationSidhu2007.server.gooseApp 	sentPk:count 	0
attr interpolationmode  none
attr source  sentPk
attr title  "packets sent, count"
scalar SubstationSidhu2007.server.gooseApp 	sentPk:sum(packetBytes) 	0
attr interpolationmode  none
attr source  sentPk
attr title  "packets sent, sum(packetBytes)"
scalar SubstationSidhu2007.server.gooseApp 	rcvdPk:count 	0
attr interpolationmode  none
attr source  rcvdPk
attr title  "packets received, count"
scalar SubstationSidhu2007.server.gooseApp 	rcvdPk:sum(packetBytes) 	0
attr interpolationmode  none
attr source  rcvdPk
attr title  "packets received, sum(packetBytes)"
statistic SubstationSidhu2007.server.gooseApp 	endToEndDelay:histogram
field count 0
field mean 0
field stddev -nan
field sum 0
field sqrsum 0
field min 0
field max 0
attr interpolationmode  none
attr source  messageAge(rcvdPk)
attr title  "end-to-end delay, histogram"
attr unit  s
bin	-INF	0
bin	-0.5	0
bin	-0.46666666666667	0
bin	-0.43333333333333	0
bin	-0.4	0
bin	-0.36666666666667	0
bin	-0.33333333333333	0
bin	-0.3	0
bin	-0.26666666666667	0
bin	-0.23333333333333	0
bin	-0.2	0
bin	-0.16666666666667	0
bin	-0.13333333333333	0
bin	-0.1	0
bin	-0.066666666666667	0
bin	-0.033333333333333	0
bin	-6.9388939039072e-18	0
bin	0.033333333333333	0
bin	0.066666666666667	0
bin	0.1	0
bin	0.13333333333333	0
bin	0.16666666666667	0
bin	0.2	0
bin	0.23333333333333	0
bin	0.26666666666667	0
bin	0.3	0
bin	0.33333333333333	0
bin	0.36666666666667	0
bin	0.4	0
bin	0.43333333333333	0
bin	0.46666666666667	0
bin	0.5	0
scalar SubstationSidhu2007.server.mmsApp 	bytesRcvd 	0
scalar SubstationSidhu2007.server.mmsApp 	bytesSent 	0
scalar SubstationSidhu2007.server.mmsApp 	sentPk:count 	0
attr interpolationmode  none
attr source  sentPk
attr title  "packets sent, count"
scalar SubstationSidhu2007.server.mmsApp 	sentPk:sum(packetBytes) 	0
attr interpolationmode  none
attr source  sentPk
attr title  "packets sent, sum(packetBytes)"
scalar SubstationSidhu2007.server.mmsApp 	rcvdPk:count 	0
attr interpolationmode  none
attr source  rcvdPk
attr title  "packets received, count"
scalar SubstationSidhu2007.server.mmsApp 	rcvdPk:sum(packetBytes) 	0
attr interpolationmode  none
attr source  rcvdPk
attr title  "packets received, sum(packetBytes)"
statistic SubstationSidhu2007.server.mmsApp 	endToEndDelay:histogram
field count 0
field mean 0
field stddev -nan
field sum 0
field sqrsum 0
field min 0
field max 0
attr interpolationmode  none
attr source  messageAge(rcvdPk)
attr title  "end-to-end delay, histogram"
attr unit  s
bin	-INF	0
bin	-0.5	0
bin	-0.46666666666667	0
bin	-0.43333333333333	0
bin	-0.4	0
bin	-0.36666666666667	0
bin	-0.33333333333333	0
bin	-0.3	0
bin	-0.26666666666667	0
bin	-0.23333333333333	0
bin	-0.2	0
bin	-0.16666666666667	0
bin	-0.13333333333333	0
bin	-0.1	0
bin	-0.066666666666667	0
bin	-0.033333333333333	0
bin	-6.9388939039072e-18	0
bin	0.033333333333333	0
bin	0.066666666666667	0
bin	0.1	0
bin	0.13333333333333	0
bin	0.16666666666667	0
bin	0.2	0
bin	0.23333333333333	0
bin	0.26666666666667	0
bin	0.3	0
bin	0.33333333333333	0
bin	0.36666666666667	0
bin	0.4	0
bin	0.43333333333333	0
bin	0.46666666666667	0
bin	0.5	0
